
*** ChampSim Multicore Out-of-Order Simulator ***

Warmup Instructions: 1000000
Simulation Instructions: 1000000
Number of CPUs: 1
threads:1

L1I Configuration:
L1I_SET:64
L1I_WAY:8
L1I_RQ_SIZE:64
L1I_WQ_SIZE:64
L1I_PQ_SIZE:8
L1I_MSHR_SIZE:8

L1D Configuration:
L1D_SET:64
L1D_WAY:12
L1D_RQ_SIZE:64
L1D_WQ_SIZE:64
L1D_PQ_SIZE:8
L1D_MSHR_SIZE:16

L2C Configuration:
L2C_SET:1024
L2C_WAY:8
L2C_RQ_SIZE:32
L2C_WQ_SIZE:32
L2C_PQ_SIZE:16
L2C_MSHR_SIZE:32

LLC Configuration:
LLC_SET:2048
LLC_WAY:16
LLC SLICES:1
LLC_RQ_SIZE:32
LLC_WQ_SIZE:32
LLC_PQ_SIZE:32
LLC_MSHR_SIZE:64

Interconnect OFF
Off-chip DRAM Size: 4096 MB Channels: 1 Width: 64-bit Data Rate: 3200 MT/s
PAGE SIZE in KB: 4.000000 
PAGE SIZE in MB: 0.003906 
PAGE offset in bits: 12 
CEASER-S_LLC:1
CEASER_LATENCY:3
REMAP : ON
APLR : 100Partitions : 2

CPU 0 runs ./tracer/main.trace.xz
CPU 0 Bimodal branch predictor
Initialize SRRIP state
0
Added to LLC Read Queue
Adding to DRAM
Adding to RQ 1 Index 0
Updating DRAM Schedule Cycle
DRAM Read Scheduled
DRAM request processed
Data is being Processed
1
Added to LLC Read Queue
Set 1521 Way 8 Index 0
Adding to DRAM
Adding to RQ 1 Index 0
Updating DRAM Schedule Cycle
DRAM Read Scheduled
DRAM request processed
Data is being Processed
0 1814943815948032533 8
2
Added to LLC Read Queue
Set 984 Way 8 Index 0
Adding to DRAM
Adding to RQ 1 Index 0
Updating DRAM Schedule Cycle
DRAM Read Scheduled
DRAM request processed
Data is being Processed
1 629938980030325166 8
3
Added to LLC Read Queue
Set 1305 Way 8 Index 0
Adding to DRAM
Adding to RQ 1 Index 0
Updating DRAM Schedule Cycle
DRAM Read Scheduled
DRAM request processed
Data is being Processed
2 4456167632360195329 8
4
Added to LLC Read Queue
Set 499 Way 0 Index 0
Adding to DRAM
Adding to RQ 1 Index 0
Updating DRAM Schedule Cycle
DRAM Read Scheduled
DRAM request processed
Data is being Processed
3 2167196843477492339 0
5
Added to LLC Read Queue
Set 841 Way 8 Index 0
Adding to DRAM
Adding to RQ 1 Index 0
Updating DRAM Schedule Cycle
DRAM Read Scheduled
DRAM request processed
Data is being Processed
4 1038908903198249941 8
6
Added to LLC Read Queue
Set 1603 Way 8 Index 0
Adding to DRAM
Adding to RQ 1 Index 0
Updating DRAM Schedule Cycle
DRAM Read Scheduled
DRAM request processed
Data is being Processed
5 2578298464548837629 8
7
Added to LLC Read Queue
Set 1769 Way 0 Index 0
Adding to DRAM
Adding to RQ 1 Index 0
Updating DRAM Schedule Cycle
DRAM Read Scheduled
DRAM request processed
Data is being Processed
6 2785527071093698158 0
8
Added to LLC Read Queue
Set 380 Way 0 Index 0
Adding to DRAM
Adding to RQ 1 Index 0
Updating DRAM Schedule Cycle
DRAM Read Scheduled
DRAM request processed
Data is being Processed
7 2449678046504595228 0
9
Added to LLC Read Queue
Set 1779 Way 8 Index 0
Adding to DRAM
Adding to RQ 1 Index 0
Updating DRAM Schedule Cycle
DRAM Read Scheduled
DRAM request processed
Data is being Processed
8 1093978921856806322 8
10
Added to LLC Read Queue
Set 1660 Way 8 Index 0
Adding to DRAM
Adding to RQ 1 Index 0
Updating DRAM Schedule Cycle
DRAM Read Scheduled
DRAM request processed
Data is being Processed
9 3093700177410254561 8
11
Added to LLC Read Queue
Set 1562 Way 8 Index 0
Adding to DRAM
Adding to RQ 1 Index 0
Updating DRAM Schedule Cycle
DRAM Read Scheduled
DRAM request processed
Data is being Processed
10 4155871415240075308 8
12
Added to LLC Read Queue
Set 4 Way 8 Index 0
Adding to DRAM
Adding to RQ 1 Index 0
Updating DRAM Schedule Cycle
DRAM Read Scheduled
DRAM request processed
Data is being Processed
11 723573888875626666 8
13
Added to LLC Read Queue
Set 634 Way 8 Index 0
Adding to DRAM
Adding to RQ 1 Index 0
Updating DRAM Schedule Cycle
DRAM Read Scheduled
DRAM request processed
Data is being Processed
12 3432368700823987853 8
14
Added to LLC Read Queue
Set 761 Way 8 Index 0
Adding to DRAM
Adding to RQ 1 Index 0
Updating DRAM Schedule Cycle
DRAM Read Scheduled
DRAM request processed
Data is being Processed
13 2092345873886920817 8
15
Added to LLC Read Queue
Set 1913 Way 8 Index 0
Adding to DRAM
Adding to RQ 1 Index 0
Updating DRAM Schedule Cycle
DRAM Read Scheduled
DRAM request processed
Data is being Processed
14 3681007915460384004 8
16
Added to LLC Read Queue
Set 290 Way 8 Index 0
Adding to DRAM
Adding to RQ 1 Index 0
Updating DRAM Schedule Cycle
DRAM Read Scheduled
DRAM request processed
Data is being Processed
15 4380281426724950246 8
17
Added to LLC Read Queue
Set 262 Way 0 Index 0
Adding to DRAM
Adding to RQ 1 Index 0
Updating DRAM Schedule Cycle
DRAM Read Scheduled
DRAM request processed
Data is being Processed
16 2208308999110884398 0
18
Added to LLC Read Queue
Set 1109 Way 8 Index 0
Adding to DRAM
Adding to RQ 1 Index 0
Updating DRAM Schedule Cycle
DRAM Read Scheduled
DRAM request processed
Data is being Processed
17 1715057542477918141 8
19
Added to LLC Read Queue
Set 619 Way 0 Index 0
Adding to DRAM
Adding to RQ 1 Index 0
Updating DRAM Schedule Cycle
DRAM Read Scheduled
DRAM request processed
Data is being Processed
18 597335056282692200 0
20
Added to LLC Read Queue
Set 861 Way 8 Index 0
Adding to DRAM
Adding to RQ 1 Index 0
Updating DRAM Schedule Cycle
DRAM Read Scheduled
DRAM request processed
Data is being Processed
19 3157407960234625817 8
21
Added to LLC Read Queue
Set 1208 Way 0 Index 0
Adding to DRAM
Adding to RQ 1 Index 0
Updating DRAM Schedule Cycle
DRAM Read Scheduled
DRAM request processed
Data is being Processed
20 488737842170026073 0
22
Added to LLC Read Queue
Set 1193 Way 8 Index 0
Adding to DRAM
Adding to RQ 1 Index 0
Updating DRAM Schedule Cycle
DRAM Read Scheduled
DRAM request processed
Data is being Processed
21 1287589379262024785 8
23
Added to LLC Read Queue
Set 402 Way 0 Index 0
Adding to DRAM
Adding to RQ 1 Index 0
Updating DRAM Schedule Cycle
DRAM Read Scheduled
DRAM request processed
Data is being Processed
22 2684025238328077130 0
24
Added to LLC Read Queue
Set 1443 Way 0 Index 0
Adding to DRAM
Adding to RQ 1 Index 0
Updating DRAM Schedule Cycle
DRAM Read Scheduled
DRAM request processed
Data is being Processed
23 4138013809205198542 0
25
Added to LLC Read Queue
Set 508 Way 0 Index 0
Adding to DRAM
Adding to RQ 1 Index 0
Updating DRAM Schedule Cycle
DRAM Read Scheduled
DRAM request processed
Data is being Processed
24 3403657085941204404 0
26
Added to LLC Read Queue
Set 592 Way 0 Index 0
Adding to DRAM
Adding to RQ 1 Index 0
Updating DRAM Schedule Cycle
DRAM Read Scheduled
DRAM request processed
Data is being Processed
25 474106550040152418 0
27
Added to LLC Read Queue
Set 373 Way 0 Index 0
Adding to DRAM
Adding to RQ 1 Index 0
Updating DRAM Schedule Cycle
DRAM Read Scheduled
DRAM request processed
Data is being Processed
26 3585761301048501860 0
28
Added to LLC Read Queue
Set 868 Way 0 Index 0
Adding to DRAM
Adding to RQ 1 Index 0
Updating DRAM Schedule Cycle
DRAM Read Scheduled
DRAM request processed
Data is being Processed
27 1535811039925062147 0
29
Added to LLC Read Queue
Set 1063 Way 0 Index 0
Adding to DRAM
Adding to RQ 1 Index 0
Updating DRAM Schedule Cycle
DRAM Read Scheduled
DRAM request processed
Data is being Processed
28 2975124636184692931 0
30
Added to LLC Read Queue
Set 1608 Way 8 Index 0
Adding to DRAM
Adding to RQ 1 Index 0
Updating DRAM Schedule Cycle
DRAM Read Scheduled
DRAM request processed
Data is being Processed
29 2726327214210487833 8
31
Added to LLC Read Queue
Set 1799 Way 8 Index 0
Adding to DRAM
Adding to RQ 1 Index 0
Updating DRAM Schedule Cycle
DRAM Read Scheduled
DRAM request processed
Data is being Processed
30 3645351487051507745 8
32
Added to LLC Read Queue
Set 1678 Way 8 Index 0
Adding to DRAM
Adding to RQ 1 Index 0
Updating DRAM Schedule Cycle
DRAM Read Scheduled
DRAM request processed
Data is being Processed
31 2851345815100481744 8
33
Added to LLC Read Queue
Set 895 Way 0 Index 0
Adding to DRAM
Adding to RQ 1 Index 0
Updating DRAM Schedule Cycle
DRAM Read Scheduled
DRAM request processed
Data is being Processed
32 2408690805099922598 0
34
Added to LLC Read Queue
Set 1868 Way 0 Index 0
Adding to DRAM
Adding to RQ 1 Index 0
Updating DRAM Schedule Cycle
DRAM Read Scheduled
DRAM request processed
Data is being Processed
33 860174585108638949 0
35
Added to LLC Read Queue
Set 379 Way 8 Index 0
Adding to DRAM
Adding to RQ 1 Index 0
Updating DRAM Schedule Cycle
DRAM Read Scheduled
DRAM request processed
Data is being Processed
34 2844702833867145589 8
36
Added to LLC Read Queue
Set 748 Way 0 Index 0
Adding to DRAM
Adding to RQ 1 Index 0
Updating DRAM Schedule Cycle
DRAM Read Scheduled
DRAM request processed
Data is being Processed
35 2080644291134643916 0
37
Added to LLC Read Queue
Set 182 Way 8 Index 0
Adding to DRAM
Adding to RQ 1 Index 0
Updating DRAM Schedule Cycle
DRAM Read Scheduled
DRAM request processed
Data is being Processed
36 2081206627752345087 8
38
Added to LLC Read Queue
Set 1160 Way 8 Index 0
Adding to DRAM
Adding to RQ 1 Index 0
Updating DRAM Schedule Cycle
DRAM Read Scheduled
DRAM request processed
Data is being Processed
37 548998996467145853 8
39
Added to LLC Read Queue
Set 1105 Way 0 Index 0
Adding to DRAM
Adding to RQ 1 Index 0
Updating DRAM Schedule Cycle
DRAM Read Scheduled
DRAM request processed
Data is being Processed
38 2804691311448491368 0
40
Added to LLC Read Queue
Set 1613 Way 0 Index 0
Adding to DRAM
Adding to RQ 1 Index 0
Updating DRAM Schedule Cycle
DRAM Read Scheduled
DRAM request processed
Data is being Processed
39 2884155468705108167 0
41
Added to LLC Read Queue
Set 1196 Way 0 Index 0
Adding to DRAM
Adding to RQ 1 Index 0
Updating DRAM Schedule Cycle
DRAM Read Scheduled
DRAM request processed
Data is being Processed
40 318002659243942613 0
42
Added to LLC Read Queue
Set 1259 Way 8 Index 0
Adding to DRAM
Adding to RQ 1 Index 0
Updating DRAM Schedule Cycle
DRAM Read Scheduled
DRAM request processed
Data is being Processed
41 1102304442798473837 8
43
Added to LLC Read Queue
Set 517 Way 8 Index 0
Adding to DRAM
Adding to RQ 1 Index 0
Updating DRAM Schedule Cycle
DRAM Read Scheduled
DRAM request processed
Data is being Processed
42 1408071076621343017 8
44
Added to LLC Read Queue
Set 1367 Way 8 Index 0
Adding to DRAM
Adding to RQ 1 Index 0
Updating DRAM Schedule Cycle
DRAM Read Scheduled
DRAM request processed
Data is being Processed
43 3457953407135318175 8
45
Added to LLC Read Queue
Set 802 Way 8 Index 0
Adding to DRAM
Adding to RQ 1 Index 0
Updating DRAM Schedule Cycle
DRAM Read Scheduled
DRAM request processed
Data is being Processed
44 2829016302836879505 8
46
Added to LLC Read Queue
Set 1886 Way 0 Index 0
Adding to DRAM
Adding to RQ 1 Index 0
Updating DRAM Schedule Cycle
DRAM Read Scheduled
DRAM request processed
Data is being Processed
45 1946527329995955215 0
47
Added to LLC Read Queue
Set 699 Way 0 Index 0
Adding to DRAM
Adding to RQ 1 Index 0
Updating DRAM Schedule Cycle
DRAM Read Scheduled
DRAM request processed
Data is being Processed
46 4333100960000833151 0
48
Added to LLC Read Queue
Set 31 Way 8 Index 0
Adding to DRAM
Adding to RQ 1 Index 0
Updating DRAM Schedule Cycle
DRAM Read Scheduled
DRAM request processed
Data is being Processed
47 1346019078379643766 8
49
Added to LLC Read Queue
Set 1653 Way 0 Index 0
Adding to DRAM
Adding to RQ 1 Index 0
Updating DRAM Schedule Cycle
DRAM Read Scheduled
DRAM request processed
Data is being Processed
48 548993061688238777 0
50
Added to LLC Read Queue
Set 1094 Way 8 Index 0
Adding to DRAM
Adding to RQ 1 Index 0
Updating DRAM Schedule Cycle
DRAM Read Scheduled
DRAM request processed
Data is being Processed
49 4025730412890937104 8
51
Added to LLC Read Queue
Set 175 Way 8 Index 0
Adding to DRAM
Adding to RQ 1 Index 0
Updating DRAM Schedule Cycle
DRAM Read Scheduled
DRAM request processed
Data is being Processed
50 1283331995584056931 8
52
Added to LLC Read Queue
Set 1037 Way 0 Index 0
Adding to DRAM
Adding to RQ 1 Index 0
Updating DRAM Schedule Cycle
DRAM Read Scheduled
DRAM request processed
Data is being Processed
51 3788242382216965309 0
53
Added to LLC Read Queue
Set 432 Way 0 Index 0
Adding to DRAM
Adding to RQ 1 Index 0
Updating DRAM Schedule Cycle
DRAM Read Scheduled
DRAM request processed
Data is being Processed
52 2484847648936378394 0
54
Added to LLC Read Queue
Set 1241 Way 8 Index 0
Adding to DRAM
Adding to RQ 1 Index 0
Updating DRAM Schedule Cycle
DRAM Read Scheduled
DRAM request processed
Data is being Processed
53 627570962293155835 8
55
Added to LLC Read Queue
Set 693 Way 8 Index 0
Adding to DRAM
Adding to RQ 1 Index 0
Updating DRAM Schedule Cycle
DRAM Read Scheduled
DRAM request processed
Data is being Processed
54 1284828599769373078 8
56
Added to LLC Read Queue
Set 707 Way 0 Index 0
Adding to DRAM
Adding to RQ 1 Index 0
Updating DRAM Schedule Cycle
DRAM Read Scheduled
DRAM request processed
Data is being Processed
55 3486232121813371639 0
57
Added to LLC Read Queue
Set 698 Way 8 Index 0
Adding to DRAM
Adding to RQ 1 Index 0
Updating DRAM Schedule Cycle
DRAM Read Scheduled
DRAM request processed
Data is being Processed
56 4444238648651619389 8
58
Added to LLC Read Queue
Set 544 Way 8 Index 0
Adding to DRAM
Adding to RQ 1 Index 0
Updating DRAM Schedule Cycle
DRAM Read Scheduled
DRAM request processed
Data is being Processed
57 3197333202298372893 8
59
Added to LLC Read Queue
Set 958 Way 0 Index 0
Adding to DRAM
Adding to RQ 1 Index 0
Updating DRAM Schedule Cycle
DRAM Read Scheduled
DRAM request processed
Data is being Processed
58 2464232625650227474 0
60
Added to LLC Read Queue
Set 1665 Way 8 Index 0
Adding to DRAM
Adding to RQ 1 Index 0
Updating DRAM Schedule Cycle
DRAM Read Scheduled
DRAM request processed
Data is being Processed
59 3896867724671190812 8
61
Added to LLC Read Queue
Set 1739 Way 0 Index 0
Adding to DRAM
Adding to RQ 1 Index 0
Updating DRAM Schedule Cycle
DRAM Read Scheduled
DRAM request processed
Data is being Processed
60 4106728468140094687 0
62
Added to LLC Read Queue
Set 856 Way 8 Index 0
Adding to DRAM
Adding to RQ 1 Index 0
Updating DRAM Schedule Cycle
DRAM Read Scheduled
DRAM request processed
Data is being Processed
61 2242806054602699251 8
63
Added to LLC Read Queue
Set 737 Way 8 Index 0
Adding to DRAM
Adding to RQ 1 Index 0
Updating DRAM Schedule Cycle
DRAM Read Scheduled
DRAM request processed
Data is being Processed
62 2268002974126886501 8
64
Added to LLC Read Queue
Set 665 Way 8 Index 0
Adding to DRAM
Adding to RQ 1 Index 0
Updating DRAM Schedule Cycle
DRAM Read Scheduled
DRAM request processed
Data is being Processed
63 1762993833683276214 8
65
Added to LLC Read Queue
Set 1091 Way 8 Index 0
Adding to DRAM
Adding to RQ 1 Index 0
Updating DRAM Schedule Cycle
DRAM Read Scheduled
DRAM request processed
Data is being Processed
64 4114177189610599142 8
66
Added to LLC Read Queue
Set 1053 Way 0 Index 0
Adding to DRAM
Adding to RQ 1 Index 0
Updating DRAM Schedule Cycle
DRAM Read Scheduled
DRAM request processed
Data is being Processed
65 1966962253670567463 0
67
Added to LLC Read Queue
Set 694 Way 8 Index 0
Adding to DRAM
Adding to RQ 1 Index 0
Updating DRAM Schedule Cycle
DRAM Read Scheduled
DRAM request processed
Data is being Processed
66 871005372293666679 8
68
Added to LLC Read Queue
Set 581 Way 0 Index 0
Adding to DRAM
Adding to RQ 1 Index 0
Updating DRAM Schedule Cycle
DRAM Read Scheduled
DRAM request processed
Data is being Processed
67 2814661671240574908 0
69
Added to LLC Read Queue
Set 1356 Way 0 Index 0
Adding to DRAM
Adding to RQ 1 Index 0
Updating DRAM Schedule Cycle
DRAM Read Scheduled
DRAM request processed
Data is being Processed
68 2281997435588489174 0
70
Added to LLC Read Queue
Set 727 Way 8 Index 0
Adding to DRAM
Adding to RQ 1 Index 0
Updating DRAM Schedule Cycle
DRAM Read Scheduled
DRAM request processed
Data is being Processed
69 4537669170531159412 8
71
Added to LLC Read Queue
Set 2002 Way 0 Index 0
Adding to DRAM
Adding to RQ 1 Index 0
Updating DRAM Schedule Cycle
DRAM Read Scheduled
DRAM request processed
Data is being Processed
70 3023433193232594657 0
72
Added to LLC Read Queue
Set 956 Way 0 Index 0
Adding to DRAM
Adding to RQ 1 Index 0
Updating DRAM Schedule Cycle
DRAM Read Scheduled
DRAM request processed
Data is being Processed
71 3850358846548863487 0
73
Added to LLC Read Queue
Set 1881 Way 0 Index 0
Adding to DRAM
Adding to RQ 1 Index 0
Updating DRAM Schedule Cycle
DRAM Read Scheduled
DRAM request processed
Data is being Processed
72 652555846165066483 0
74
Added to LLC Read Queue
Set 1517 Way 0 Index 0
Adding to DRAM
Adding to RQ 1 Index 0
Updating DRAM Schedule Cycle
DRAM Read Scheduled
DRAM request processed
Data is being Processed
73 1090799720641943116 0
75
Added to LLC Read Queue
Set 1087 Way 0 Index 0
Adding to DRAM
Adding to RQ 1 Index 0
Updating DRAM Schedule Cycle
DRAM Read Scheduled
DRAM request processed
Data is being Processed
74 3651868958682553157 0
76
Added to LLC Read Queue
Set 1157 Way 8 Index 0
Adding to DRAM
Adding to RQ 1 Index 0
Updating DRAM Schedule Cycle
DRAM Read Scheduled
DRAM request processed
Data is being Processed
75 738512670617086754 8
77
Added to LLC Read Queue
Set 1128 Way 0 Index 0
Adding to DRAM
Adding to RQ 1 Index 0
Updating DRAM Schedule Cycle
DRAM Read Scheduled
DRAM request processed
Data is being Processed
76 4413088621318691950 0
78
Added to LLC Read Queue
Set 940 Way 0 Index 0
Adding to DRAM
Adding to RQ 1 Index 0
Updating DRAM Schedule Cycle
DRAM Read Scheduled
DRAM request processed
Data is being Processed
77 4416000712139455620 0
79
Added to LLC Read Queue
Set 1446 Way 8 Index 0
Adding to DRAM
Adding to RQ 1 Index 0
Updating DRAM Schedule Cycle
DRAM Read Scheduled
DRAM request processed
Data is being Processed
78 4024844500048247393 8
80
Added to LLC Read Queue
Set 1728 Way 0 Index 0
Adding to DRAM
Adding to RQ 1 Index 0
Updating DRAM Schedule Cycle
DRAM Read Scheduled
DRAM request processed
Data is being Processed
79 1363573661573393196 0
81
Added to LLC Read Queue
Set 1351 Way 8 Index 0
Adding to DRAM
Adding to RQ 1 Index 0
Updating DRAM Schedule Cycle
DRAM Read Scheduled
DRAM request processed
Data is being Processed
80 2160723798082302786 8
82
Added to LLC Read Queue
Set 5 Way 0 Index 0
Adding to DRAM
Adding to RQ 1 Index 0
Updating DRAM Schedule Cycle
DRAM Read Scheduled
DRAM request processed
Data is being Processed
81 4513274509528821945 0
83
Added to LLC Read Queue
Set 692 Way 8 Index 0
Adding to DRAM
Adding to RQ 1 Index 0
Updating DRAM Schedule Cycle
DRAM Read Scheduled
DRAM request processed
Data is being Processed
82 2922364493272458063 8
84
Added to LLC Read Queue
Set 958 Way 8 Index 0
Adding to DRAM
Adding to RQ 1 Index 0
Updating DRAM Schedule Cycle
DRAM Read Scheduled
DRAM request processed
Data is being Processed
83 3793263629737250471 8
85
Added to LLC Read Queue
Set 57 Way 8 Index 0
Adding to DRAM
Adding to RQ 1 Index 0
Updating DRAM Schedule Cycle
DRAM Read Scheduled
DRAM request processed
Data is being Processed
84 3481109756422975460 8
86
Added to LLC Read Queue
Set 939 Way 0 Index 0
Adding to DRAM
Adding to RQ 1 Index 0
Updating DRAM Schedule Cycle
DRAM Read Scheduled
DRAM request processed
Data is being Processed
85 2239019543943361425 0
87
Added to LLC Read Queue
Set 409 Way 8 Index 0
Adding to DRAM
Adding to RQ 1 Index 0
Updating DRAM Schedule Cycle
DRAM Read Scheduled
DRAM request processed
Data is being Processed
86 2835291111000341946 8
88
Added to LLC Read Queue
Set 1698 Way 8 Index 0
Adding to DRAM
Adding to RQ 1 Index 0
Updating DRAM Schedule Cycle
DRAM Read Scheduled
DRAM request processed
Data is being Processed
87 2103790926240327693 8
89
Added to LLC Read Queue
Set 583 Way 8 Index 0
Adding to DRAM
Adding to RQ 1 Index 0
Updating DRAM Schedule Cycle
DRAM Read Scheduled
DRAM request processed
Data is being Processed
88 4045305780651909598 8
90
Added to LLC Read Queue
Set 1436 Way 0 Index 0
Adding to DRAM
Adding to RQ 1 Index 0
Updating DRAM Schedule Cycle
DRAM Read Scheduled
DRAM request processed
Data is being Processed
89 3396149606819300738 0
91
Added to LLC Read Queue
Set 217 Way 0 Index 0
Adding to DRAM
Adding to RQ 1 Index 0
Updating DRAM Schedule Cycle
DRAM Read Scheduled
DRAM request processed
Data is being Processed
90 4405929049369186140 0
92
Added to LLC Read Queue
Set 1007 Way 8 Index 0
Adding to DRAM
Adding to RQ 1 Index 0
Updating DRAM Schedule Cycle
DRAM Read Scheduled
DRAM request processed
Data is being Processed
91 4422328893620688116 8
93
Added to LLC Read Queue
Set 1970 Way 8 Index 0
Adding to DRAM
Adding to RQ 1 Index 0
Updating DRAM Schedule Cycle
DRAM Read Scheduled
DRAM request processed
Data is being Processed
92 2216167475671061238 8
94
Added to LLC Read Queue
Set 400 Way 8 Index 0
Adding to DRAM
Adding to RQ 1 Index 0
Updating DRAM Schedule Cycle
DRAM Read Scheduled
DRAM request processed
Data is being Processed
93 1818034636234986429 8
95
Added to LLC Read Queue
Set 681 Way 0 Index 0
Adding to DRAM
Adding to RQ 1 Index 0
Updating DRAM Schedule Cycle
DRAM Read Scheduled
DRAM request processed
Data is being Processed
94 1849797769555098624 0
96
Added to LLC Read Queue
Set 724 Way 8 Index 0
Adding to DRAM
Adding to RQ 1 Index 0
Updating DRAM Schedule Cycle
DRAM Read Scheduled
DRAM request processed
Data is being Processed
95 438308405112044385 8
97
Added to LLC Read Queue
Set 686 Way 0 Index 0
Adding to DRAM
Adding to RQ 1 Index 0
Updating DRAM Schedule Cycle
DRAM Read Scheduled
DRAM request processed
Data is being Processed
96 4064934104967878910 0
98
Added to LLC Read Queue
Set 846 Way 8 Index 0
Adding to DRAM
Adding to RQ 1 Index 0
Updating DRAM Schedule Cycle
DRAM Read Scheduled
DRAM request processed
Data is being Processed
97 4010028226394951020 8
99
Added to LLC Read Queue
Set 1843 Way 8 Index 0
Adding to DRAM
Adding to RQ 1 Index 0
Updating DRAM Schedule Cycle
DRAM Read Scheduled
DRAM request processed
Data is being Processed
98 1214066617322047751 8
100
Added to LLC Read Queue
Set 370 Way 0 Index 0
Adding to DRAM
Adding to RQ 1 Index 0
Updating DRAM Schedule Cycle
DRAM Read Scheduled
DRAM request processed
Data is being Processed
99 3679847450373639914 0
101
Added to LLC Read Queue
Set 1033 Way 0 Index 0
Adding to DRAM
Adding to RQ 1 Index 0
Updating DRAM Schedule Cycle
DRAM Read Scheduled
DRAM request processed
Data is being Processed
100 875828537922885307 0
102
Added to LLC Read Queue
Set 1669 Way 0 Index 0
Adding to DRAM
Adding to RQ 1 Index 0
Updating DRAM Schedule Cycle
DRAM Read Scheduled
DRAM request processed
Data is being Processed
101 2580088716486825933 0
103
Added to LLC Read Queue
Set 1050 Way 0 Index 0
Adding to DRAM
Adding to RQ 1 Index 0
Updating DRAM Schedule Cycle
DRAM Read Scheduled
DRAM request processed
Data is being Processed
102 3547002073822135861 0
104
Added to LLC Read Queue
Set 19 Way 8 Index 0
Adding to DRAM
Adding to RQ 1 Index 0
Updating DRAM Schedule Cycle
DRAM Read Scheduled
DRAM request processed
Data is being Processed
103 4366712501172436800 8
105
Added to LLC Read Queue
Set 1374 Way 0 Index 0
Adding to DRAM
Adding to RQ 1 Index 0
Updating DRAM Schedule Cycle
DRAM Read Scheduled
DRAM request processed
Data is being Processed
104 3735582510294509628 0
106
Added to LLC Read Queue
Set 1830 Way 0 Index 0
Adding to DRAM
Adding to RQ 1 Index 0
Updating DRAM Schedule Cycle
DRAM Read Scheduled
DRAM request processed
Data is being Processed
105 3423636190871111285 0
107
Added to LLC Read Queue
Set 1639 Way 0 Index 0
Adding to DRAM
Adding to RQ 1 Index 0
Updating DRAM Schedule Cycle
DRAM Read Scheduled
DRAM request processed
Data is being Processed
106 4611217046192594540 0
108
Added to LLC Read Queue
Set 1370 Way 0 Index 0
Adding to DRAM
Adding to RQ 1 Index 0
Updating DRAM Schedule Cycle
DRAM Read Scheduled
DRAM request processed
Data is being Processed
107 4443994948636696809 0
109
Added to LLC Read Queue
Set 357 Way 8 Index 0
Adding to DRAM
Adding to RQ 1 Index 0
Updating DRAM Schedule Cycle
DRAM Read Scheduled
DRAM request processed
Data is being Processed
108 3619076801435879277 8
110
Added to LLC Read Queue
Set 1517 Way 8 Index 0
Adding to DRAM
Adding to RQ 1 Index 0
Updating DRAM Schedule Cycle
DRAM Read Scheduled
DRAM request processed
Data is being Processed
109 3919324631783264929 8
111
Added to LLC Read Queue
Set 1404 Way 8 Index 0
Adding to DRAM
Adding to RQ 1 Index 0
Updating DRAM Schedule Cycle
DRAM Read Scheduled
DRAM request processed
Data is being Processed
110 586303574484325533 8
112
Added to LLC Read Queue
Set 1919 Way 0 Index 0
Adding to DRAM
Adding to RQ 1 Index 0
Updating DRAM Schedule Cycle
DRAM Read Scheduled
DRAM request processed
Data is being Processed
111 1353006792306901481 0
113
Added to LLC Read Queue
Set 605 Way 8 Index 0
Adding to DRAM
Adding to RQ 1 Index 0
Updating DRAM Schedule Cycle
DRAM Read Scheduled
DRAM request processed
Data is being Processed
112 3922976013695439450 8
114
Added to LLC Read Queue
Set 1865 Way 0 Index 0
Adding to DRAM
Adding to RQ 1 Index 0
Updating DRAM Schedule Cycle
DRAM Read Scheduled
DRAM request processed
Data is being Processed
113 1822459798301606828 0
115
Added to LLC Read Queue
Set 333 Way 0 Index 0
Adding to DRAM
Adding to RQ 1 Index 0
Updating DRAM Schedule Cycle
DRAM Read Scheduled
DRAM request processed
Data is being Processed
114 4550230812691883348 0
116
Added to LLC Read Queue
Set 371 Way 8 Index 0
Adding to DRAM
Adding to RQ 1 Index 0
Updating DRAM Schedule Cycle
DRAM Read Scheduled
DRAM request processed
Data is being Processed
115 1913689500395600597 8
117
Added to LLC Read Queue
Set 1951 Way 0 Index 0
Adding to DRAM
Adding to RQ 1 Index 0
Updating DRAM Schedule Cycle
DRAM Read Scheduled
DRAM request processed
Data is being Processed
116 2152317453148269189 0
118
Added to LLC Read Queue
Set 1251 Way 8 Index 0
Adding to DRAM
Adding to RQ 1 Index 0
Updating DRAM Schedule Cycle
DRAM Read Scheduled
DRAM request processed
Data is being Processed
117 4430669302680253387 8
119
Added to LLC Read Queue
Set 1449 Way 0 Index 0
Adding to DRAM
Adding to RQ 1 Index 0
Updating DRAM Schedule Cycle
DRAM Read Scheduled
DRAM request processed
Data is being Processed
118 892013643346914552 0
120
Added to LLC Read Queue
Set 1777 Way 8 Index 0
Adding to DRAM
Adding to RQ 1 Index 0
Updating DRAM Schedule Cycle
DRAM Read Scheduled
DRAM request processed
Data is being Processed
119 628142239740808307 8
121
Added to LLC Read Queue
Set 1779 Way 9 Index 0
Adding to DRAM
Adding to RQ 1 Index 0
Updating DRAM Schedule Cycle
DRAM Read Scheduled
DRAM request processed
Data is being Processed
120 2489890426995770924 9
122
Added to LLC Read Queue
Set 1589 Way 0 Index 0
Adding to DRAM
Adding to RQ 1 Index 0
Updating DRAM Schedule Cycle
DRAM Read Scheduled
DRAM request processed
Data is being Processed
121 3168721614248661995 0
123
Added to LLC Read Queue
Set 1868 Way 1 Index 0
Adding to DRAM
Adding to RQ 1 Index 0
Updating DRAM Schedule Cycle
DRAM Read Scheduled
DRAM request processed
Data is being Processed
122 798858000532556089 1
124
Added to LLC Read Queue
Set 1982 Way 8 Index 0
Adding to DRAM
Adding to RQ 1 Index 0
Updating DRAM Schedule Cycle
DRAM Read Scheduled
DRAM request processed
Data is being Processed
123 4270760663032422477 8
125
Added to LLC Read Queue
Set 247 Way 0 Index 0
Adding to DRAM
Adding to RQ 1 Index 0
Updating DRAM Schedule Cycle
DRAM Read Scheduled
DRAM request processed
Data is being Processed
124 1761032984178950257 0
126
Added to LLC Read Queue
Set 1811 Way 8 Index 0
Adding to DRAM
Adding to RQ 1 Index 0
Updating DRAM Schedule Cycle
DRAM Read Scheduled
DRAM request processed
Data is being Processed
125 611258118982126034 8
127
Added to LLC Read Queue
Set 1665 Way 0 Index 0
Adding to DRAM
Adding to RQ 1 Index 0
Updating DRAM Schedule Cycle
DRAM Read Scheduled
DRAM request processed
Data is being Processed
126 2969512312017459967 0
128
Added to LLC Read Queue
Set 497 Way 0 Index 0
Adding to DRAM
Adding to RQ 1 Index 0
Updating DRAM Schedule Cycle
DRAM Read Scheduled
DRAM request processed
Data is being Processed
127 2336620797402562868 0
129
Added to LLC Read Queue
Set 1853 Way 0 Index 0
Adding to DRAM
Adding to RQ 1 Index 0
Updating DRAM Schedule Cycle
DRAM Read Scheduled
DRAM request processed
Data is being Processed
128 826536261089144643 0
130
Added to LLC Read Queue
Set 1363 Way 8 Index 0
Adding to DRAM
Adding to RQ 1 Index 0
Updating DRAM Schedule Cycle
DRAM Read Scheduled
DRAM request processed
Data is being Processed
129 2443192407709751369 8
131
Added to LLC Read Queue
Set 47 Way 0 Index 0
Adding to DRAM
Adding to RQ 1 Index 0
Updating DRAM Schedule Cycle
DRAM Read Scheduled
DRAM request processed
Data is being Processed
130 2462198622865185734 0
132
Added to LLC Read Queue
Set 1674 Way 8 Index 0
Adding to DRAM
Adding to RQ 1 Index 0
Updating DRAM Schedule Cycle
DRAM Read Scheduled
DRAM request processed
Data is being Processed
131 2034260429693361414 8
133
Added to LLC Read Queue
Set 27 Way 8 Index 0
Adding to DRAM
Adding to RQ 1 Index 0
Updating DRAM Schedule Cycle
DRAM Read Scheduled
DRAM request processed
Data is being Processed
132 2510112710323528588 8
134
Added to LLC Read Queue
Set 1522 Way 0 Index 0
Adding to DRAM
Adding to RQ 1 Index 0
Updating DRAM Schedule Cycle
DRAM Read Scheduled
DRAM request processed
Data is being Processed
133 1088807821567473693 0
135
Added to LLC Read Queue
Set 628 Way 0 Index 0
Adding to DRAM
Adding to RQ 1 Index 0
Updating DRAM Schedule Cycle
DRAM Read Scheduled
DRAM request processed
Data is being Processed
134 3670013574098988623 0
136
Added to LLC Read Queue
Set 1827 Way 8 Index 0
Adding to DRAM
Adding to RQ 1 Index 0
Updating DRAM Schedule Cycle
DRAM Read Scheduled
DRAM request processed
Data is being Processed
135 2155388885008309954 8
137
Added to LLC Read Queue
Set 38 Way 8 Index 0
Adding to DRAM
Adding to RQ 1 Index 0
Updating DRAM Schedule Cycle
DRAM Read Scheduled
DRAM request processed
Data is being Processed
136 3457532528992355322 8
138
Added to LLC Read Queue
Set 1647 Way 0 Index 0
Adding to DRAM
Adding to RQ 1 Index 0
Updating DRAM Schedule Cycle
DRAM Read Scheduled
DRAM request processed
Data is being Processed
137 4474276700340517372 0
139
Added to LLC Read Queue
Set 1691 Way 0 Index 0
Adding to DRAM
Adding to RQ 1 Index 0
Updating DRAM Schedule Cycle
DRAM Read Scheduled
DRAM request processed
Data is being Processed
138 3731678241362627421 0
140
Added to LLC Read Queue
Set 1872 Way 0 Index 0
Adding to DRAM
Adding to RQ 1 Index 0
Updating DRAM Schedule Cycle
DRAM Read Scheduled
DRAM request processed
Data is being Processed
139 946674242858008676 0
141
Added to LLC Read Queue
Set 1627 Way 0 Index 0
Adding to DRAM
Adding to RQ 1 Index 0
Updating DRAM Schedule Cycle
DRAM Read Scheduled
DRAM request processed
Data is being Processed
140 2358484548596895596 0
142
Added to LLC Read Queue
Set 4 Way 9 Index 0
Adding to DRAM
Adding to RQ 1 Index 0
Updating DRAM Schedule Cycle
DRAM Read Scheduled
DRAM request processed
Data is being Processed
141 3526831622634569196 9
143
Added to LLC Read Queue
Set 498 Way 0 Index 0
Adding to DRAM
Adding to RQ 1 Index 0
Updating DRAM Schedule Cycle
DRAM Read Scheduled
DRAM request processed
Data is being Processed
142 2428962422179491100 0
144
Added to LLC Read Queue
Set 904 Way 8 Index 0
Adding to DRAM
Adding to RQ 1 Index 0
Updating DRAM Schedule Cycle
DRAM Read Scheduled
DRAM request processed
Data is being Processed
143 3141602460204525434 8
145
Added to LLC Read Queue
Set 520 Way 8 Index 0
Adding to DRAM
Adding to RQ 1 Index 0
Updating DRAM Schedule Cycle
DRAM Read Scheduled
DRAM request processed
Data is being Processed
144 3468199807459702809 8
146
Added to LLC Read Queue
Set 1966 Way 0 Index 0
Adding to DRAM
Adding to RQ 1 Index 0
Updating DRAM Schedule Cycle
DRAM Read Scheduled
DRAM request processed
Data is being Processed
145 2233987909387589652 0
147
Added to LLC Read Queue
Set 1894 Way 0 Index 0
Adding to DRAM
Adding to RQ 1 Index 0
Updating DRAM Schedule Cycle
DRAM Read Scheduled
DRAM request processed
Data is being Processed
146 4044428605547754904 0
148
Added to LLC Read Queue
Set 1207 Way 8 Index 0
Adding to DRAM
Adding to RQ 1 Index 0
Updating DRAM Schedule Cycle
DRAM Read Scheduled
DRAM request processed
Data is being Processed
147 884012103368218447 8
149
Added to LLC Read Queue
Set 783 Way 0 Index 0
Adding to DRAM
Adding to RQ 1 Index 0
Updating DRAM Schedule Cycle
DRAM Read Scheduled
DRAM request processed
Data is being Processed
148 611022297087257180 0
150
Added to LLC Read Queue
Set 482 Way 0 Index 0
Adding to DRAM
Adding to RQ 1 Index 0
Updating DRAM Schedule Cycle
DRAM Read Scheduled
DRAM request processed
Data is being Processed
149 1306246363719266689 0
151
Added to LLC Read Queue
Set 1308 Way 0 Index 0
Adding to DRAM
Adding to RQ 1 Index 0
Updating DRAM Schedule Cycle
DRAM Read Scheduled
DRAM request processed
Data is being Processed
150 4222471023650213850 0
152
Added to LLC Read Queue
Set 1676 Way 8 Index 0
Adding to DRAM
Adding to RQ 1 Index 0
Updating DRAM Schedule Cycle
DRAM Read Scheduled
DRAM request processed
Data is being Processed
151 3710989011593825639 8
153
Added to LLC Read Queue
Set 1415 Way 8 Index 0
Adding to DRAM
Adding to RQ 1 Index 0
Updating DRAM Schedule Cycle
DRAM Read Scheduled
DRAM request processed
Data is being Processed
152 890123913170292054 8
154
Added to LLC Read Queue
Set 1225 Way 0 Index 0
Adding to DRAM
Adding to RQ 1 Index 0
Updating DRAM Schedule Cycle
DRAM Read Scheduled
DRAM request processed
Data is being Processed
153 2657535707552670406 0
155
Added to LLC Read Queue
Set 1055 Way 0 Index 0
Adding to DRAM
Adding to RQ 1 Index 0
Updating DRAM Schedule Cycle
DRAM Read Scheduled
DRAM request processed
Data is being Processed
154 1808861876397116657 0
156
Added to LLC Read Queue
Set 323 Way 8 Index 0
Adding to DRAM
Adding to RQ 1 Index 0
Updating DRAM Schedule Cycle
DRAM Read Scheduled
DRAM request processed
Data is being Processed
155 4317304571902007242 8
157
Added to LLC Read Queue
Set 1240 Way 8 Index 0
Adding to DRAM
Adding to RQ 1 Index 0
Updating DRAM Schedule Cycle
DRAM Read Scheduled
DRAM request processed
Data is being Processed
156 1630034190318832491 8
158
Added to LLC Read Queue
Set 1659 Way 0 Index 0
Adding to DRAM
Adding to RQ 1 Index 0
Updating DRAM Schedule Cycle
DRAM Read Scheduled
DRAM request processed
Data is being Processed
157 2610996778128075604 0
159
Added to LLC Read Queue
Set 556 Way 8 Index 0
Adding to DRAM
Adding to RQ 1 Index 0
Updating DRAM Schedule Cycle
DRAM Read Scheduled
DRAM request processed
Data is being Processed
158 481876160980043153 8
160
Added to LLC Read Queue
Set 414 Way 0 Index 0
Adding to DRAM
Adding to RQ 1 Index 0
Updating DRAM Schedule Cycle
DRAM Read Scheduled
DRAM request processed
Data is being Processed
159 1077040566032165428 0
161
Added to LLC Read Queue
Set 1681 Way 0 Index 0
Adding to DRAM
Adding to RQ 1 Index 0
Updating DRAM Schedule Cycle
DRAM Read Scheduled
DRAM request processed
Data is being Processed
160 2861831788760856921 0
162
Added to LLC Read Queue
Set 1773 Way 8 Index 0
Adding to DRAM
Adding to RQ 1 Index 0
Updating DRAM Schedule Cycle
DRAM Read Scheduled
DRAM request processed
Data is being Processed
161 2148214069142569529 8
163
Added to LLC Read Queue
Set 1572 Way 8 Index 0
Adding to DRAM
Adding to RQ 1 Index 0
Updating DRAM Schedule Cycle
DRAM Read Scheduled
DRAM request processed
Data is being Processed
162 4441059106001841287 8
164
Added to LLC Read Queue
Set 730 Way 8 Index 0
Adding to DRAM
Adding to RQ 1 Index 0
Updating DRAM Schedule Cycle
DRAM Read Scheduled
DRAM request processed
Data is being Processed
163 811771886087801134 8
165
Added to LLC Read Queue
Set 1825 Way 8 Index 0
Adding to DRAM
Adding to RQ 1 Index 0
Updating DRAM Schedule Cycle
DRAM Read Scheduled
DRAM request processed
Data is being Processed
164 1396067273593123454 8
166
Added to LLC Read Queue
Set 1476 Way 8 Index 0
Adding to DRAM
Adding to RQ 1 Index 0
Updating DRAM Schedule Cycle
DRAM Read Scheduled
DRAM request processed
Data is being Processed
165 3470391356939208764 8
167
Added to LLC Read Queue
Set 1343 Way 8 Index 0
Adding to DRAM
Adding to RQ 1 Index 0
Updating DRAM Schedule Cycle
DRAM Read Scheduled
DRAM request processed
Data is being Processed
166 2862154672107300275 8
168
Added to LLC Read Queue
Set 706 Way 0 Index 0
Adding to DRAM
Adding to RQ 1 Index 0
Updating DRAM Schedule Cycle
DRAM Read Scheduled
DRAM request processed
Data is being Processed
167 1261040167651980099 0
169
Added to LLC Read Queue
Set 107 Way 8 Index 0
Adding to DRAM
Adding to RQ 1 Index 0
Updating DRAM Schedule Cycle
DRAM Read Scheduled
DRAM request processed
Data is being Processed
168 2361189727542940804 8
170
Added to LLC Read Queue
Set 404 Way 8 Index 0
Adding to DRAM
Adding to RQ 1 Index 0
Updating DRAM Schedule Cycle
DRAM Read Scheduled
DRAM request processed
Data is being Processed
169 3996450595890835486 8
171
Added to LLC Read Queue
Set 1536 Way 0 Index 0
Adding to DRAM
Adding to RQ 1 Index 0
Updating DRAM Schedule Cycle
DRAM Read Scheduled
DRAM request processed
Data is being Processed
170 3036244382888496452 0
172
Added to LLC Read Queue
Set 722 Way 8 Index 0
Adding to DRAM
Adding to RQ 1 Index 0
Updating DRAM Schedule Cycle
DRAM Read Scheduled
DRAM request processed
Data is being Processed
171 3868999751327169855 8
173
Added to LLC Read Queue
Set 1616 Way 0 Index 0
Adding to DRAM
Adding to RQ 1 Index 0
Updating DRAM Schedule Cycle
DRAM Read Scheduled
DRAM request processed
Data is being Processed
172 2407349618732803383 0
174
Added to LLC Read Queue
Set 1383 Way 8 Index 0
Adding to DRAM
Adding to RQ 1 Index 0
Updating DRAM Schedule Cycle
DRAM Read Scheduled
DRAM request processed
Data is being Processed
173 2174060709761119195 8
175
Added to LLC Read Queue
Set 773 Way 8 Index 0
Adding to DRAM
Adding to RQ 1 Index 0
Updating DRAM Schedule Cycle
DRAM Read Scheduled
DRAM request processed
Data is being Processed
174 3003909729254041064 8
176
Added to LLC Read Queue
Set 866 Way 8 Index 0
Adding to DRAM
Adding to RQ 1 Index 0
Updating DRAM Schedule Cycle
DRAM Read Scheduled
DRAM request processed
Data is being Processed
175 3428497760891012226 8
177
Added to LLC Read Queue
Set 2002 Way 8 Index 0
Adding to DRAM
Adding to RQ 1 Index 0
Updating DRAM Schedule Cycle
DRAM Read Scheduled
DRAM request processed
Data is being Processed
176 3580922548697351496 8
178
Added to LLC Read Queue
Set 1543 Way 8 Index 0
Adding to DRAM
Adding to RQ 1 Index 0
Updating DRAM Schedule Cycle
DRAM Read Scheduled
DRAM request processed
Data is being Processed
177 2446656703782037486 8
179
Added to LLC Read Queue
Set 1897 Way 0 Index 0
Adding to DRAM
Adding to RQ 1 Index 0
Updating DRAM Schedule Cycle
DRAM Read Scheduled
DRAM request processed
Data is being Processed
178 2538318438622356281 0
180
Added to LLC Read Queue
Set 1712 Way 8 Index 0
Adding to DRAM
Adding to RQ 1 Index 0
Updating DRAM Schedule Cycle
DRAM Read Scheduled
DRAM request processed
Data is being Processed
179 3378016905401102227 8
181
Added to LLC Read Queue
Set 1508 Way 0 Index 0
Adding to DRAM
Adding to RQ 1 Index 0
Updating DRAM Schedule Cycle
DRAM Read Scheduled
DRAM request processed
Data is being Processed
180 875066880064758045 0
182
Added to LLC Read Queue
Set 1339 Way 0 Index 0
Adding to DRAM
Adding to RQ 1 Index 0
Updating DRAM Schedule Cycle
DRAM Read Scheduled
DRAM request processed
Data is being Processed
181 1464030134418194816 0
183
Added to LLC Read Queue
Set 1339 Way 8 Index 0
Adding to DRAM
Adding to RQ 1 Index 0
Updating DRAM Schedule Cycle
DRAM Read Scheduled
DRAM request processed
Data is being Processed
182 1317481789814636019 8
184
Added to LLC Read Queue
Set 568 Way 8 Index 0
Adding to DRAM
Adding to RQ 1 Index 0
Updating DRAM Schedule Cycle
DRAM Read Scheduled
DRAM request processed
Data is being Processed
183 1787537349791497478 8
185
Added to LLC Read Queue
Set 482 Way 1 Index 0
Adding to DRAM
Adding to RQ 1 Index 0
Updating DRAM Schedule Cycle
DRAM Read Scheduled
DRAM request processed
Data is being Processed
184 2383646905595052089 1
186
Added to LLC Read Queue
Set 687 Way 8 Index 0
Adding to DRAM
Adding to RQ 1 Index 0
Updating DRAM Schedule Cycle
DRAM Read Scheduled
DRAM request processed
Data is being Processed
185 2506070520675657394 8
187
Added to LLC Read Queue
Set 1091 Way 0 Index 0
Adding to DRAM
Adding to RQ 1 Index 0
Updating DRAM Schedule Cycle
DRAM Read Scheduled
DRAM request processed
Data is being Processed
186 783830832418448175 0
188
Added to LLC Read Queue
Set 1413 Way 0 Index 0
Adding to DRAM
Adding to RQ 1 Index 0
Updating DRAM Schedule Cycle
DRAM Read Scheduled
DRAM request processed
Data is being Processed
187 4372630285025787196 0
189
Added to LLC Read Queue
Set 1776 Way 0 Index 0
Adding to DRAM
Adding to RQ 1 Index 0
Updating DRAM Schedule Cycle
DRAM Read Scheduled
DRAM request processed
Data is being Processed
188 2303257662702952118 0
190
Added to LLC Read Queue
Set 68 Way 8 Index 0
Adding to DRAM
Adding to RQ 1 Index 0
Updating DRAM Schedule Cycle
DRAM Read Scheduled
DRAM request processed
Data is being Processed
189 2900324865086738539 8
191
Added to LLC Read Queue
Set 1900 Way 0 Index 0
Adding to DRAM
Adding to RQ 1 Index 0
Updating DRAM Schedule Cycle
DRAM Read Scheduled
DRAM request processed
Data is being Processed
190 977711255674626578 0
192
Added to LLC Read Queue
Set 194 Way 0 Index 0
Adding to DRAM
Adding to RQ 1 Index 0
Updating DRAM Schedule Cycle
DRAM Read Scheduled
DRAM request processed
Data is being Processed
191 3905413505595953614 0
193
Added to LLC Read Queue
Set 1518 Way 0 Index 0
Adding to DRAM
Adding to RQ 1 Index 0
Updating DRAM Schedule Cycle
DRAM Read Scheduled
DRAM request processed
Data is being Processed
192 4563559414692279478 0
194
Added to LLC Read Queue
Set 611 Way 8 Index 0
Adding to DRAM
Adding to RQ 1 Index 0
Updating DRAM Schedule Cycle
DRAM Read Scheduled
DRAM request processed
Data is being Processed
193 416294845243619037 8
195
Added to LLC Read Queue
Set 703 Way 8 Index 0
Adding to DRAM
Adding to RQ 1 Index 0
Updating DRAM Schedule Cycle
DRAM Read Scheduled
DRAM request processed
Data is being Processed
194 2206077927967181164 8
196
Added to LLC Read Queue
Set 808 Way 8 Index 0
Adding to DRAM
Adding to RQ 1 Index 0
Updating DRAM Schedule Cycle
DRAM Read Scheduled
DRAM request processed
Data is being Processed
195 3277258187194293778 8
197
Added to LLC Read Queue
Set 954 Way 0 Index 0
Adding to DRAM
Adding to RQ 1 Index 0
Updating DRAM Schedule Cycle
DRAM Read Scheduled
DRAM request processed
Data is being Processed
196 3196596314622329478 0
198
Added to LLC Read Queue
Set 372 Way 0 Index 0
Adding to DRAM
Adding to RQ 1 Index 0
Updating DRAM Schedule Cycle
DRAM Read Scheduled
DRAM request processed
Data is being Processed
197 3924859872668568532 0
199
Added to LLC Read Queue
Set 129 Way 0 Index 0
Adding to DRAM
Adding to RQ 1 Index 0
Updating DRAM Schedule Cycle
DRAM Read Scheduled
DRAM request processed
Data is being Processed
198 3810185743270603314 0
200
Added to LLC Read Queue
Set 716 Way 8 Index 0
Adding to DRAM
Adding to RQ 1 Index 0
Updating DRAM Schedule Cycle
DRAM Read Scheduled
DRAM request processed
Data is being Processed
199 4145218810458039415 8
201
Added to LLC Read Queue
Set 36 Way 8 Index 0
Adding to DRAM
Adding to RQ 1 Index 0
Updating DRAM Schedule Cycle
DRAM Read Scheduled
DRAM request processed
Data is being Processed
200 2223778487916386182 8
202
Added to LLC Read Queue
Set 1261 Way 0 Index 0
Adding to DRAM
Adding to RQ 1 Index 0
Updating DRAM Schedule Cycle
DRAM Read Scheduled
DRAM request processed
Data is being Processed
201 481017933938415839 0
203
Added to LLC Read Queue
Set 1796 Way 8 Index 0
Adding to DRAM
Adding to RQ 1 Index 0
Updating DRAM Schedule Cycle
DRAM Read Scheduled
DRAM request processed
Data is being Processed
202 3261718680493378986 8
204
Added to LLC Read Queue
Set 2034 Way 8 Index 0
Adding to DRAM
Adding to RQ 1 Index 0
Updating DRAM Schedule Cycle
DRAM Read Scheduled
DRAM request processed
Data is being Processed
203 1809369190165814080 8
205
Added to LLC Read Queue
Set 1277 Way 8 Index 0
Adding to DRAM
Adding to RQ 1 Index 0
Updating DRAM Schedule Cycle
DRAM Read Scheduled
DRAM request processed
Data is being Processed
204 1543841191219831557 8
206
Added to LLC Read Queue
Set 580 Way 0 Index 0
Adding to DRAM
Adding to RQ 1 Index 0
Updating DRAM Schedule Cycle
DRAM Read Scheduled
DRAM request processed
Data is being Processed
205 1062352455096557045 0
207
Added to LLC Read Queue
Set 652 Way 0 Index 0
Adding to DRAM
Adding to RQ 1 Index 0
Updating DRAM Schedule Cycle
DRAM Read Scheduled
DRAM request processed
Data is being Processed
206 3525107246888478453 0
208
Added to LLC Read Queue
Set 1086 Way 8 Index 0
Adding to DRAM
Adding to RQ 1 Index 0
Updating DRAM Schedule Cycle
DRAM Read Scheduled
DRAM request processed
Data is being Processed
207 3886771027013194256 8
209
Added to LLC Read Queue
Set 649 Way 8 Index 0
Adding to DRAM
Adding to RQ 1 Index 0
Updating DRAM Schedule Cycle
DRAM Read Scheduled
DRAM request processed
Data is being Processed
208 966378376869692693 8
210
Added to LLC Read Queue
Set 1334 Way 0 Index 0
Adding to DRAM
Adding to RQ 1 Index 0
Updating DRAM Schedule Cycle
DRAM Read Scheduled
DRAM request processed
Data is being Processed
209 3172359482440701027 0
211
Added to LLC Read Queue
Set 1060 Way 0 Index 0
Adding to DRAM
Adding to RQ 1 Index 0
Updating DRAM Schedule Cycle
DRAM Read Scheduled
DRAM request processed
Data is being Processed
210 3810704140860448397 0
212
Added to LLC Read Queue
Set 831 Way 8 Index 0
Adding to DRAM
Adding to RQ 1 Index 0
Updating DRAM Schedule Cycle
DRAM Read Scheduled
DRAM request processed
Data is being Processed
211 2136522209613548287 8
213
Added to LLC Read Queue
Set 608 Way 0 Index 0
Adding to DRAM
Adding to RQ 1 Index 0
Updating DRAM Schedule Cycle
DRAM Read Scheduled
DRAM request processed
Data is being Processed
212 2893287692775679640 0
214
Added to LLC Read Queue
Set 559 Way 8 Index 0
Adding to DRAM
Adding to RQ 1 Index 0
Updating DRAM Schedule Cycle
DRAM Read Scheduled
DRAM request processed
Data is being Processed
213 1631907035126343642 8
215
Added to LLC Read Queue
Set 1939 Way 0 Index 0
Adding to DRAM
Adding to RQ 1 Index 0
Updating DRAM Schedule Cycle
DRAM Read Scheduled
DRAM request processed
Data is being Processed
214 3381693804249227661 0
216
Added to LLC Read Queue
Set 712 Way 8 Index 0
Adding to DRAM
Adding to RQ 1 Index 0
Updating DRAM Schedule Cycle
DRAM Read Scheduled
DRAM request processed
Data is being Processed
215 2289804538468589728 8
217
Added to LLC Read Queue
Set 1357 Way 8 Index 0
Adding to DRAM
Adding to RQ 1 Index 0
Updating DRAM Schedule Cycle
DRAM Read Scheduled
DRAM request processed
Data is being Processed
216 3822752755072580774 8
218
Added to LLC Read Queue
Set 1125 Way 0 Index 0
Adding to DRAM
Adding to RQ 1 Index 0
Updating DRAM Schedule Cycle
DRAM Read Scheduled
DRAM request processed
Data is being Processed
217 1524067201481271757 0
219
Added to LLC Read Queue
Set 1691 Way 8 Index 0
Adding to DRAM
Adding to RQ 1 Index 0
Updating DRAM Schedule Cycle
DRAM Read Scheduled
DRAM request processed
Data is being Processed
218 2558499071052594264 8
220
Added to LLC Read Queue
Set 389 Way 8 Index 0
Adding to DRAM
Adding to RQ 1 Index 0
Updating DRAM Schedule Cycle
DRAM Read Scheduled
DRAM request processed
Data is being Processed
219 2543881610607815731 8
221
Added to LLC Read Queue
Set 1498 Way 8 Index 0
Adding to DRAM
Adding to RQ 1 Index 0
Updating DRAM Schedule Cycle
DRAM Read Scheduled
DRAM request processed
Data is being Processed
220 2524335700660952683 8
222
Added to LLC Read Queue
Set 1143 Way 8 Index 0
Adding to DRAM
Adding to RQ 1 Index 0
Updating DRAM Schedule Cycle
DRAM Read Scheduled
DRAM request processed
Data is being Processed
221 2701211417215434444 8
223
Added to LLC Read Queue
Set 1294 Way 8 Index 0
Adding to DRAM
Adding to RQ 1 Index 0
Updating DRAM Schedule Cycle
DRAM Read Scheduled
DRAM request processed
Data is being Processed
222 678322931095478960 8
224
Added to LLC Read Queue
Set 908 Way 8 Index 0
Adding to DRAM
Adding to RQ 1 Index 0
Updating DRAM Schedule Cycle
DRAM Read Scheduled
DRAM request processed
Data is being Processed
223 3008744613929765230 8
225
Added to LLC Read Queue
Set 341 Way 0 Index 0
Adding to DRAM
Adding to RQ 1 Index 0
Updating DRAM Schedule Cycle
DRAM Read Scheduled
DRAM request processed
Data is being Processed
224 3440825845656008471 0
226
Added to LLC Read Queue
Set 563 Way 0 Index 0
Adding to DRAM
Adding to RQ 1 Index 0
Updating DRAM Schedule Cycle
DRAM Read Scheduled
DRAM request processed
Data is being Processed
225 3101880629375936092 0
227
Added to LLC Read Queue
Set 1654 Way 8 Index 0
Adding to DRAM
Adding to RQ 1 Index 0
Updating DRAM Schedule Cycle
DRAM Read Scheduled
DRAM request processed
Data is being Processed
226 4245454799063641315 8
228
Added to LLC Read Queue
Set 455 Way 0 Index 0
Adding to DRAM
Adding to RQ 1 Index 0
Updating DRAM Schedule Cycle
DRAM Read Scheduled
DRAM request processed
Data is being Processed
227 415035678917154415 0
229
Added to LLC Read Queue
Set 975 Way 8 Index 0
Adding to DRAM
Adding to RQ 1 Index 0
Updating DRAM Schedule Cycle
DRAM Read Scheduled
DRAM request processed
Data is being Processed
228 1868519010644355227 8
230
Added to LLC Read Queue
Set 1933 Way 8 Index 0
Adding to DRAM
Adding to RQ 1 Index 0
Updating DRAM Schedule Cycle
DRAM Read Scheduled
DRAM request processed
Data is being Processed
229 2305656433988017771 8
231
Added to LLC Read Queue
Set 1654 Way 9 Index 0
Adding to DRAM
Adding to RQ 1 Index 0
Updating DRAM Schedule Cycle
DRAM Read Scheduled
DRAM request processed
Data is being Processed
230 3800107192338840390 9
232
Added to LLC Read Queue
Set 668 Way 0 Index 0
Adding to DRAM
Adding to RQ 1 Index 0
Updating DRAM Schedule Cycle
DRAM Read Scheduled
DRAM request processed
Data is being Processed
231 3429772167495134472 0
233
Added to LLC Read Queue
Set 869 Way 8 Index 0
Adding to DRAM
Adding to RQ 1 Index 0
Updating DRAM Schedule Cycle
DRAM Read Scheduled
DRAM request processed
Data is being Processed
232 575833763248054048 8
234
Added to LLC Read Queue
Set 1741 Way 0 Index 0
Adding to DRAM
Adding to RQ 1 Index 0
Updating DRAM Schedule Cycle
DRAM Read Scheduled
DRAM request processed
Data is being Processed
233 2944198633594508452 0
235
Added to LLC Read Queue
Set 384 Way 0 Index 0
Adding to DRAM
Adding to RQ 1 Index 0
Updating DRAM Schedule Cycle
DRAM Read Scheduled
DRAM request processed
Data is being Processed
234 2697903869141801698 0
236
Added to LLC Read Queue
Set 1589 Way 8 Index 0
Adding to DRAM
Adding to RQ 1 Index 0
Updating DRAM Schedule Cycle
DRAM Read Scheduled
DRAM request processed
Data is being Processed
235 3441744618261939582 8
237
Added to LLC Read Queue
Set 1291 Way 0 Index 0
Adding to DRAM
Adding to RQ 1 Index 0
Updating DRAM Schedule Cycle
DRAM Read Scheduled
DRAM request processed
Data is being Processed
236 2121614900770726997 0
238
Added to LLC Read Queue
Set 2024 Way 0 Index 0
Adding to DRAM
Adding to RQ 1 Index 0
Updating DRAM Schedule Cycle
DRAM Read Scheduled
DRAM request processed
Data is being Processed
237 1864945029757567009 0
239
Added to LLC Read Queue
Set 1529 Way 0 Index 0
Adding to DRAM
Adding to RQ 1 Index 0
Updating DRAM Schedule Cycle
DRAM Read Scheduled
DRAM request processed
Data is being Processed
238 387224307838870891 0
240
Added to LLC Read Queue
Set 1828 Way 0 Index 0
Adding to DRAM
Adding to RQ 1 Index 0
Updating DRAM Schedule Cycle
DRAM Read Scheduled
DRAM request processed
Data is being Processed
239 938071647262819478 0
241
Added to LLC Read Queue
Set 1117 Way 8 Index 0
Adding to DRAM
Adding to RQ 1 Index 0
Updating DRAM Schedule Cycle
DRAM Read Scheduled
DRAM request processed
Data is being Processed
240 3401390089002508589 8
242
Added to LLC Read Queue
Set 952 Way 0 Index 0
Adding to DRAM
Adding to RQ 1 Index 0
Updating DRAM Schedule Cycle
DRAM Read Scheduled
DRAM request processed
Data is being Processed
241 3546704516168970163 0
243
Added to LLC Read Queue
Set 547 Way 8 Index 0
Adding to DRAM
Adding to RQ 1 Index 0
Updating DRAM Schedule Cycle
DRAM Read Scheduled
DRAM request processed
Data is being Processed
242 3086468466180076975 8
244
Added to LLC Read Queue
Set 352 Way 8 Index 0
Adding to DRAM
Adding to RQ 1 Index 0
Updating DRAM Schedule Cycle
DRAM Read Scheduled
DRAM request processed
Data is being Processed
243 1065951148855917326 8
245
Added to LLC Read Queue
Set 201 Way 0 Index 0
Adding to DRAM
Adding to RQ 1 Index 0
Updating DRAM Schedule Cycle
DRAM Read Scheduled
DRAM request processed
Data is being Processed
244 3116974112974083972 0
246
Added to LLC Read Queue
Set 319 Way 0 Index 0
Adding to DRAM
Adding to RQ 1 Index 0
Updating DRAM Schedule Cycle
DRAM Read Scheduled
DRAM request processed
Data is being Processed
245 2658500377240559011 0
247
Added to LLC Read Queue
Set 1135 Way 0 Index 0
Adding to DRAM
Adding to RQ 1 Index 0
Updating DRAM Schedule Cycle
DRAM Read Scheduled
DRAM request processed
Data is being Processed
246 4600879492816105370 0
248
Added to LLC Read Queue
Set 1559 Way 8 Index 0
Adding to DRAM
Adding to RQ 1 Index 0
Updating DRAM Schedule Cycle
DRAM Read Scheduled
DRAM request processed
Data is being Processed
247 1665300185781547527 8
249
Added to LLC Read Queue
Set 1569 Way 0 Index 0
Adding to DRAM
Adding to RQ 1 Index 0
Updating DRAM Schedule Cycle
DRAM Read Scheduled
DRAM request processed
Data is being Processed
248 2542195052734176584 0
250
Added to LLC Read Queue
Set 365 Way 8 Index 0
Adding to DRAM
Adding to RQ 1 Index 0
Updating DRAM Schedule Cycle
DRAM Read Scheduled
DRAM request processed
Data is being Processed
249 2317019230497906761 8
251
Added to LLC Read Queue
Set 1067 Way 0 Index 0
Adding to DRAM
Adding to RQ 1 Index 0
Updating DRAM Schedule Cycle
DRAM Read Scheduled
DRAM request processed
Data is being Processed
250 1762274010764549434 0
252
Added to LLC Read Queue
Set 378 Way 0 Index 0
Adding to DRAM
Adding to RQ 1 Index 0
Updating DRAM Schedule Cycle
DRAM Read Scheduled
DRAM request processed
Data is being Processed
251 1429036804364802407 0
253
Added to LLC Read Queue
Set 405 Way 0 Index 0
Adding to DRAM
Adding to RQ 1 Index 0
Updating DRAM Schedule Cycle
DRAM Read Scheduled
DRAM request processed
Data is being Processed
252 2691453399895014960 0
254
Added to LLC Read Queue
Set 599 Way 8 Index 0
Adding to DRAM
Adding to RQ 1 Index 0
Updating DRAM Schedule Cycle
DRAM Read Scheduled
DRAM request processed
Data is being Processed
253 2241694528015948130 8
255
Added to LLC Read Queue
Set 1454 Way 8 Index 0
Adding to DRAM
Adding to RQ 1 Index 0
Updating DRAM Schedule Cycle
DRAM Read Scheduled
DRAM request processed
Data is being Processed
254 1085965120567993017 8
256
Added to LLC Read Queue
Set 45 Way 0 Index 0
Adding to DRAM
Adding to RQ 1 Index 0
Updating DRAM Schedule Cycle
DRAM Read Scheduled
DRAM request processed
Data is being Processed
255 3186354111985026511 0
257
Added to LLC Read Queue
Set 754 Way 8 Index 0
Adding to DRAM
Adding to RQ 1 Index 0
Updating DRAM Schedule Cycle
DRAM Read Scheduled
DRAM request processed
Data is being Processed
256 1006168532397020372 8
258
Added to LLC Read Queue
Set 1982 Way 0 Index 0
Adding to DRAM
Adding to RQ 1 Index 0
Updating DRAM Schedule Cycle
DRAM Read Scheduled
DRAM request processed
Data is being Processed
257 4546558321111157388 0
259
Added to LLC Read Queue
Set 490 Way 0 Index 0
Adding to DRAM
Adding to RQ 1 Index 0
Updating DRAM Schedule Cycle
DRAM Read Scheduled
DRAM request processed
Data is being Processed
258 4592084091975073587 0
260
Added to LLC Read Queue
Set 883 Way 0 Index 0
Adding to DRAM
Adding to RQ 1 Index 0
Updating DRAM Schedule Cycle
DRAM Read Scheduled
DRAM request processed
Data is being Processed
259 4600613874769605368 0
261
Added to LLC Read Queue
Set 1569 Way 8 Index 0
Adding to DRAM
Adding to RQ 1 Index 0
Updating DRAM Schedule Cycle
DRAM Read Scheduled
DRAM request processed
Data is being Processed
260 2758092236258531952 8
262
Added to LLC Read Queue
Set 623 Way 0 Index 0
Adding to DRAM
Adding to RQ 1 Index 0
Updating DRAM Schedule Cycle
DRAM Read Scheduled
DRAM request processed
Data is being Processed
261 2317066120249331020 0
263
Added to LLC Read Queue
Set 1381 Way 8 Index 0
Adding to DRAM
Adding to RQ 1 Index 0
Updating DRAM Schedule Cycle
DRAM Read Scheduled
DRAM request processed
Data is being Processed
262 621049685572793335 8
264
Added to LLC Read Queue
Set 213 Way 8 Index 0
Adding to DRAM
Adding to RQ 1 Index 0
Updating DRAM Schedule Cycle
DRAM Read Scheduled
DRAM request processed
Data is being Processed
263 3022836861169369112 8
265
Added to LLC Read Queue
Set 153 Way 0 Index 0
Adding to DRAM
Adding to RQ 1 Index 0
Updating DRAM Schedule Cycle
DRAM Read Scheduled
DRAM request processed
Data is being Processed
264 3679474379945347041 0
266
Added to LLC Read Queue
Set 55 Way 8 Index 0
Adding to DRAM
Adding to RQ 1 Index 0
Updating DRAM Schedule Cycle
DRAM Read Scheduled
DRAM request processed
Data is being Processed
265 1599695475810581647 8
267
Added to LLC Read Queue
Set 1574 Way 0 Index 0
Adding to DRAM
Adding to RQ 1 Index 0
Updating DRAM Schedule Cycle
DRAM Read Scheduled
DRAM request processed
Data is being Processed
266 1695183682162904697 0
268
Added to LLC Read Queue
Set 779 Way 8 Index 0
Adding to DRAM
Adding to RQ 1 Index 0
Updating DRAM Schedule Cycle
DRAM Read Scheduled
DRAM request processed
Data is being Processed
267 1498231659768968418 8
269
Added to LLC Read Queue
Set 1716 Way 8 Index 0
Adding to DRAM
Adding to RQ 1 Index 0
Updating DRAM Schedule Cycle
DRAM Read Scheduled
DRAM request processed
Data is being Processed
268 4379700522222292746 8
270
Added to LLC Read Queue
Set 1554 Way 0 Index 0
Adding to DRAM
Adding to RQ 1 Index 0
Updating DRAM Schedule Cycle
DRAM Read Scheduled
DRAM request processed
Data is being Processed
269 3727276390988109025 0
271
Added to LLC Read Queue
Set 33 Way 8 Index 0
Adding to DRAM
Adding to RQ 1 Index 0
Updating DRAM Schedule Cycle
DRAM Read Scheduled
DRAM request processed
Data is being Processed
270 4232582697348183248 8
272
Added to LLC Read Queue
Set 513 Way 0 Index 0
Adding to DRAM
Adding to RQ 1 Index 0
Updating DRAM Schedule Cycle
DRAM Read Scheduled
DRAM request processed
Data is being Processed
271 2790966057926307817 0
273
Added to LLC Read Queue
Set 1801 Way 0 Index 0
Adding to DRAM
Adding to RQ 1 Index 0
Updating DRAM Schedule Cycle
DRAM Read Scheduled
DRAM request processed
Data is being Processed
272 1575321106203683968 0
274
Added to LLC Read Queue
Set 349 Way 0 Index 0
Adding to DRAM
Adding to RQ 1 Index 0
Updating DRAM Schedule Cycle
DRAM Read Scheduled
DRAM request processed
Data is being Processed
273 4464062153794379179 0
275
Added to LLC Read Queue
Set 519 Way 0 Index 0
Adding to DRAM
Adding to RQ 1 Index 0
Updating DRAM Schedule Cycle
DRAM Read Scheduled
DRAM request processed
Data is being Processed
274 1847760908678331033 0
276
Added to LLC Read Queue
Set 514 Way 0 Index 0
Adding to DRAM
Adding to RQ 1 Index 0
Updating DRAM Schedule Cycle
DRAM Read Scheduled
DRAM request processed
Data is being Processed
275 3665923690503746879 0
277
Added to LLC Read Queue
Set 187 Way 0 Index 0
Adding to DRAM
Adding to RQ 1 Index 0
Updating DRAM Schedule Cycle
DRAM Read Scheduled
DRAM request processed
Data is being Processed
276 925972516374900461 0
278
Added to LLC Read Queue
Set 1555 Way 0 Index 0
Adding to DRAM
Adding to RQ 1 Index 0
Updating DRAM Schedule Cycle
DRAM Read Scheduled
DRAM request processed
Data is being Processed
277 908933482185727479 0
279
Added to LLC Read Queue
Set 1426 Way 8 Index 0
Adding to DRAM
Adding to RQ 1 Index 0
Updating DRAM Schedule Cycle
DRAM Read Scheduled
DRAM request processed
Data is being Processed
278 876324569720104753 8
280
Added to LLC Read Queue
Set 136 Way 8 Index 0
Adding to DRAM
Adding to RQ 1 Index 0
Updating DRAM Schedule Cycle
DRAM Read Scheduled
DRAM request processed
Data is being Processed
279 966933558647308417 8
281
Added to LLC Read Queue
Set 615 Way 0 Index 0
Adding to DRAM
Adding to RQ 1 Index 0
Updating DRAM Schedule Cycle
DRAM Read Scheduled
DRAM request processed
Data is being Processed
280 897593552609044919 0
282
Added to LLC Read Queue
Set 1867 Way 8 Index 0
Adding to DRAM
Adding to RQ 1 Index 0
Updating DRAM Schedule Cycle
DRAM Read Scheduled
DRAM request processed
Data is being Processed
281 1345168773295821380 8
283
Added to LLC Read Queue
Set 246 Way 8 Index 0
Adding to DRAM
Adding to RQ 1 Index 0
Updating DRAM Schedule Cycle
DRAM Read Scheduled
DRAM request processed
Data is being Processed
282 1689328474805035178 8
284
Added to LLC Read Queue
Set 559 Way 0 Index 0
Adding to DRAM
Adding to RQ 1 Index 0
Updating DRAM Schedule Cycle
DRAM Read Scheduled
DRAM request processed
Data is being Processed
283 4181558667947315865 0
285
Added to LLC Read Queue
Set 537 Way 0 Index 0
Adding to DRAM
Adding to RQ 1 Index 0
Updating DRAM Schedule Cycle
DRAM Read Scheduled
DRAM request processed
Data is being Processed
284 4327822778167720665 0
286
Added to LLC Read Queue
Set 210 Way 0 Index 0
Adding to DRAM
Adding to RQ 1 Index 0
Updating DRAM Schedule Cycle
DRAM Read Scheduled
DRAM request processed
Data is being Processed
285 769262308214516607 0
287
Added to LLC Read Queue
Set 1315 Way 8 Index 0
Adding to DRAM
Adding to RQ 1 Index 0
Updating DRAM Schedule Cycle
DRAM Read Scheduled
DRAM request processed
Data is being Processed
286 3580190435813756324 8
288
Added to LLC Read Queue
Set 1020 Way 0 Index 0
Adding to DRAM
Adding to RQ 1 Index 0
Updating DRAM Schedule Cycle
DRAM Read Scheduled
DRAM request processed
Data is being Processed
287 1712904443787016404 0
289
Added to LLC Read Queue
Set 1382 Way 8 Index 0
Adding to DRAM
Adding to RQ 1 Index 0
Updating DRAM Schedule Cycle
DRAM Read Scheduled
DRAM request processed
Data is being Processed
288 2496690386308456487 8
290
Added to LLC Read Queue
Set 314 Way 8 Index 0
Adding to DRAM
Adding to RQ 1 Index 0
Updating DRAM Schedule Cycle
DRAM Read Scheduled
DRAM request processed
Data is being Processed
289 2535150659489576558 8
291
Added to LLC Read Queue
Set 1184 Way 0 Index 0
Adding to DRAM
Adding to RQ 1 Index 0
Updating DRAM Schedule Cycle
DRAM Read Scheduled
DRAM request processed
Data is being Processed
290 2864365262596254215 0
292
Added to LLC Read Queue
Set 1107 Way 0 Index 0
Adding to DRAM
Adding to RQ 1 Index 0
Updating DRAM Schedule Cycle
DRAM Read Scheduled
DRAM request processed
Data is being Processed
291 4184904930889116580 0
293
Added to LLC Read Queue
Set 257 Way 8 Index 0
Adding to DRAM
Adding to RQ 1 Index 0
Updating DRAM Schedule Cycle
DRAM Read Scheduled
DRAM request processed
Data is being Processed
292 2275388606830629217 8
294
Added to LLC Read Queue
Set 1736 Way 8 Index 0
Adding to DRAM
Adding to RQ 1 Index 0
Updating DRAM Schedule Cycle
DRAM Read Scheduled
DRAM request processed
Data is being Processed
293 2496719240980028441 8
295
Added to LLC Read Queue
Set 426 Way 8 Index 0
Adding to DRAM
Adding to RQ 1 Index 0
Updating DRAM Schedule Cycle
DRAM Read Scheduled
DRAM request processed
Data is being Processed
294 3266420677125108641 8
296
Added to LLC Read Queue
Set 1257 Way 0 Index 0
Adding to DRAM
Adding to RQ 1 Index 0
Updating DRAM Schedule Cycle
DRAM Read Scheduled
DRAM request processed
Data is being Processed
295 737574893022515653 0
297
Added to LLC Read Queue
Set 421 Way 0 Index 0
Adding to DRAM
Adding to RQ 1 Index 0
Updating DRAM Schedule Cycle
DRAM Read Scheduled
DRAM request processed
Data is being Processed
296 2454361488663984087 0
298
Added to LLC Read Queue
Set 29 Way 8 Index 0
Adding to DRAM
Adding to RQ 1 Index 0
Updating DRAM Schedule Cycle
DRAM Read Scheduled
DRAM request processed
Data is being Processed
297 3761057993453559455 8
299
Added to LLC Read Queue
Set 1656 Way 8 Index 0
Adding to DRAM
Adding to RQ 1 Index 0
Updating DRAM Schedule Cycle
DRAM Read Scheduled
DRAM request processed
Data is being Processed
298 3966722682917159150 8
300
Added to LLC Read Queue
Set 1729 Way 0 Index 0
Adding to DRAM
Adding to RQ 1 Index 0
Updating DRAM Schedule Cycle
DRAM Read Scheduled
DRAM request processed
Data is being Processed
299 4223873325006388902 0
301
Added to LLC Read Queue
Set 1273 Way 8 Index 0
Adding to DRAM
Adding to RQ 1 Index 0
Updating DRAM Schedule Cycle
DRAM Read Scheduled
DRAM request processed
Data is being Processed
300 4120695240093691079 8
302
Added to LLC Read Queue
Set 817 Way 0 Index 0
Adding to DRAM
Adding to RQ 1 Index 0
Updating DRAM Schedule Cycle
DRAM Read Scheduled
DRAM request processed
Data is being Processed
301 2850852227002950839 0
303
Added to LLC Read Queue
Set 1274 Way 0 Index 0
Adding to DRAM
Adding to RQ 1 Index 0
Updating DRAM Schedule Cycle
DRAM Read Scheduled
DRAM request processed
Data is being Processed
302 3179696329904493432 0
304
Added to LLC Read Queue
Set 368 Way 0 Index 0
Adding to DRAM
Adding to RQ 1 Index 0
Updating DRAM Schedule Cycle
DRAM Read Scheduled
DRAM request processed
Data is being Processed
303 812760525617068352 0
305
Added to LLC Read Queue
Set 2005 Way 0 Index 0
Adding to DRAM
Adding to RQ 1 Index 0
Updating DRAM Schedule Cycle
DRAM Read Scheduled
DRAM request processed
Data is being Processed
304 2641091612854883605 0
306
Added to LLC Read Queue
Set 363 Way 0 Index 0
Adding to DRAM
Adding to RQ 1 Index 0
Updating DRAM Schedule Cycle
DRAM Read Scheduled
DRAM request processed
Data is being Processed
305 1774403326218097596 0
307
Added to LLC Read Queue
Set 1086 Way 0 Index 0
Adding to DRAM
Adding to RQ 1 Index 0
Updating DRAM Schedule Cycle
DRAM Read Scheduled
DRAM request processed
Data is being Processed
306 296051698550906089 0
308
Added to LLC Read Queue
Set 423 Way 8 Index 0
Adding to DRAM
Adding to RQ 1 Index 0
Updating DRAM Schedule Cycle
DRAM Read Scheduled
DRAM request processed
Data is being Processed
307 1989733387911464100 8
309
Added to LLC Read Queue
Set 564 Way 8 Index 0
Adding to DRAM
Adding to RQ 1 Index 0
Updating DRAM Schedule Cycle
DRAM Read Scheduled
DRAM request processed
Data is being Processed
308 504299453151479407 8
310
Added to LLC Read Queue
Set 1467 Way 0 Index 0
Adding to DRAM
Adding to RQ 1 Index 0
Updating DRAM Schedule Cycle
DRAM Read Scheduled
DRAM request processed
Data is being Processed
309 4187393896283941347 0
311
Added to LLC Read Queue
Set 245 Way 0 Index 0
Adding to DRAM
Adding to RQ 1 Index 0
Updating DRAM Schedule Cycle
DRAM Read Scheduled
DRAM request processed
Data is being Processed
310 4479821560997497271 0
312
Added to LLC Read Queue
Set 1973 Way 8 Index 0
Adding to DRAM
Adding to RQ 1 Index 0
Updating DRAM Schedule Cycle
DRAM Read Scheduled
DRAM request processed
Data is being Processed
311 3577326105079056015 8
313
Added to LLC Read Queue
Set 891 Way 8 Index 0
Adding to DRAM
Adding to RQ 1 Index 0
Updating DRAM Schedule Cycle
DRAM Read Scheduled
DRAM request processed
Data is being Processed
312 784134511134909380 8
314
Added to LLC Read Queue
Set 1066 Way 8 Index 0
Adding to DRAM
Adding to RQ 1 Index 0
Updating DRAM Schedule Cycle
DRAM Read Scheduled
DRAM request processed
Data is being Processed
313 4471574477198353185 8
315
Added to LLC Read Queue
Set 624 Way 8 Index 0
Adding to DRAM
Adding to RQ 1 Index 0
Updating DRAM Schedule Cycle
DRAM Read Scheduled
DRAM request processed
Data is being Processed
314 4408463776365776528 8
316
Added to LLC Read Queue
Set 1110 Way 0 Index 0
Adding to DRAM
Adding to RQ 1 Index 0
Updating DRAM Schedule Cycle
DRAM Read Scheduled
DRAM request processed
Data is being Processed
315 1090441880068701332 0
317
Added to LLC Read Queue
Set 593 Way 8 Index 0
Adding to DRAM
Adding to RQ 1 Index 0
Updating DRAM Schedule Cycle
DRAM Read Scheduled
DRAM request processed
Data is being Processed
316 1559616049914081783 8
318
Added to LLC Read Queue
Set 128 Way 0 Index 0
Adding to DRAM
Adding to RQ 1 Index 0
Updating DRAM Schedule Cycle
DRAM Read Scheduled
DRAM request processed
Data is being Processed
317 3106337705981700160 0
319
Added to LLC Read Queue
Set 312 Way 0 Index 0
Adding to DRAM
Adding to RQ 1 Index 0
Updating DRAM Schedule Cycle
DRAM Read Scheduled
DRAM request processed
Data is being Processed
318 2257648756772995094 0
320
Added to LLC Read Queue
Set 1688 Way 0 Index 0
Adding to DRAM
Adding to RQ 1 Index 0
Updating DRAM Schedule Cycle
DRAM Read Scheduled
DRAM request processed
Data is being Processed
319 2894504754790366691 0
321
Added to LLC Read Queue
Set 975 Way 0 Index 0
Adding to DRAM
Adding to RQ 1 Index 0
Updating DRAM Schedule Cycle
DRAM Read Scheduled
DRAM request processed
Data is being Processed
320 1545839709090172183 0
322
Added to LLC Read Queue
Set 1043 Way 0 Index 0
Adding to DRAM
Adding to RQ 1 Index 0
Updating DRAM Schedule Cycle
DRAM Read Scheduled
DRAM request processed
Data is being Processed
321 1753145011144213920 0
323
Added to LLC Read Queue
Set 1397 Way 8 Index 0
Adding to DRAM
Adding to RQ 1 Index 0
Updating DRAM Schedule Cycle
DRAM Read Scheduled
DRAM request processed
Data is being Processed
322 676429292557741374 8
324
Added to LLC Read Queue
Set 531 Way 8 Index 0
Adding to DRAM
Adding to RQ 1 Index 0
Updating DRAM Schedule Cycle
DRAM Read Scheduled
DRAM request processed
Data is being Processed
323 3138482042812719917 8
325
Added to LLC Read Queue
Set 765 Way 0 Index 0
Adding to DRAM
Adding to RQ 1 Index 0
Updating DRAM Schedule Cycle
DRAM Read Scheduled
DRAM request processed
Data is being Processed
324 3193927284451054458 0
326
Added to LLC Read Queue
Set 234 Way 0 Index 0
Adding to DRAM
Adding to RQ 1 Index 0
Updating DRAM Schedule Cycle
DRAM Read Scheduled
DRAM request processed
Data is being Processed
325 1792691210922798706 0
327
Added to LLC Read Queue
Set 1190 Way 8 Index 0
Adding to DRAM
Adding to RQ 1 Index 0
Updating DRAM Schedule Cycle
DRAM Read Scheduled
DRAM request processed
Data is being Processed
326 3787373029096085144 8
328
Added to LLC Read Queue
Set 889 Way 0 Index 0
Adding to DRAM
Adding to RQ 1 Index 0
Updating DRAM Schedule Cycle
DRAM Read Scheduled
DRAM request processed
Data is being Processed
327 1887440682873478841 0
329
Added to LLC Read Queue
Set 1940 Way 0 Index 0
Adding to DRAM
Adding to RQ 1 Index 0
Updating DRAM Schedule Cycle
DRAM Read Scheduled
DRAM request processed
Data is being Processed
328 358683974266753345 0
330
Added to LLC Read Queue
Set 802 Way 0 Index 0
Adding to DRAM
Adding to RQ 1 Index 0
Updating DRAM Schedule Cycle
DRAM Read Scheduled
DRAM request processed
Data is being Processed
329 3444301268306962991 0
331
Added to LLC Read Queue
Set 1594 Way 0 Index 0
Adding to DRAM
Adding to RQ 1 Index 0
Updating DRAM Schedule Cycle
DRAM Read Scheduled
DRAM request processed
Data is being Processed
330 604385651440785890 0
332
Added to LLC Read Queue
Set 1055 Way 8 Index 0
Adding to DRAM
Adding to RQ 1 Index 0
Updating DRAM Schedule Cycle
DRAM Read Scheduled
DRAM request processed
Data is being Processed
331 2159982570762321267 8
333
Added to LLC Read Queue
Set 1768 Way 0 Index 0
Adding to DRAM
Adding to RQ 1 Index 0
Updating DRAM Schedule Cycle
DRAM Read Scheduled
DRAM request processed
Data is being Processed
332 3727314025836004562 0
334
Added to LLC Read Queue
Set 659 Way 8 Index 0
Adding to DRAM
Adding to RQ 1 Index 0
Updating DRAM Schedule Cycle
DRAM Read Scheduled
DRAM request processed
Data is being Processed
333 1682797784493993843 8
335
Added to LLC Read Queue
Set 734 Way 8 Index 0
Adding to DRAM
Adding to RQ 1 Index 0
Updating DRAM Schedule Cycle
DRAM Read Scheduled
DRAM request processed
Data is being Processed
334 3455164308093130381 8
336
Added to LLC Read Queue
Set 1195 Way 8 Index 0
Adding to DRAM
Adding to RQ 1 Index 0
Updating DRAM Schedule Cycle
DRAM Read Scheduled
DRAM request processed
Data is being Processed
335 1252808913361107394 8
337
Added to LLC Read Queue
Set 1874 Way 8 Index 0
Adding to DRAM
Adding to RQ 1 Index 0
Updating DRAM Schedule Cycle
DRAM Read Scheduled
DRAM request processed
Data is being Processed
336 2416925620649872898 8
338
Added to LLC Read Queue
Set 829 Way 0 Index 0
Adding to DRAM
Adding to RQ 1 Index 0
Updating DRAM Schedule Cycle
DRAM Read Scheduled
DRAM request processed
Data is being Processed
337 745393520246145345 0
339
Added to LLC Read Queue
Set 411 Way 0 Index 0
Adding to DRAM
Adding to RQ 1 Index 0
Updating DRAM Schedule Cycle
DRAM Read Scheduled
DRAM request processed
Data is being Processed
338 2888340678158572328 0
340
Added to LLC Read Queue
Set 1440 Way 0 Index 0
Adding to DRAM
Adding to RQ 1 Index 0
Updating DRAM Schedule Cycle
DRAM Read Scheduled
DRAM request processed
Data is being Processed
339 2245196683739142771 0
341
Added to LLC Read Queue
Set 1375 Way 0 Index 0
Adding to DRAM
Adding to RQ 1 Index 0
Updating DRAM Schedule Cycle
DRAM Read Scheduled
DRAM request processed
Data is being Processed
340 742995859294934464 0
342
Added to LLC Read Queue
Set 202 Way 0 Index 0
Adding to DRAM
Adding to RQ 1 Index 0
Updating DRAM Schedule Cycle
DRAM Read Scheduled
DRAM request processed
Data is being Processed
341 1108651845909300467 0
343
Added to LLC Read Queue
Set 1131 Way 8 Index 0
Adding to DRAM
Adding to RQ 1 Index 0
Updating DRAM Schedule Cycle
DRAM Read Scheduled
DRAM request processed
Data is being Processed
342 2863662214021787523 8
344
Added to LLC Read Queue
Set 1903 Way 8 Index 0
Adding to DRAM
Adding to RQ 1 Index 0
Updating DRAM Schedule Cycle
DRAM Read Scheduled
DRAM request processed
Data is being Processed
343 3896116236115257819 8
345
Added to LLC Read Queue
Set 1213 Way 8 Index 0
Adding to DRAM
Adding to RQ 1 Index 0
Updating DRAM Schedule Cycle
DRAM Read Scheduled
DRAM request processed
Data is being Processed
344 3350206027938983007 8
346
Added to LLC Read Queue
Set 1240 Way 9 Index 0
Adding to DRAM
Adding to RQ 1 Index 0
Updating DRAM Schedule Cycle
DRAM Read Scheduled
DRAM request processed
Data is being Processed
345 1834692359249168884 9
347
Added to LLC Read Queue
Set 1992 Way 8 Index 0
Adding to DRAM
Adding to RQ 1 Index 0
Updating DRAM Schedule Cycle
DRAM Read Scheduled
DRAM request processed
Data is being Processed
346 4292068465450709442 8
348
Added to LLC Read Queue
Set 2023 Way 0 Index 0
Adding to DRAM
Adding to RQ 1 Index 0
Updating DRAM Schedule Cycle
DRAM Read Scheduled
DRAM request processed
Data is being Processed
347 2189802310968936695 0
349
Added to LLC Read Queue
Set 853 Way 8 Index 0
Adding to DRAM
Adding to RQ 1 Index 0
Updating DRAM Schedule Cycle
DRAM Read Scheduled
DRAM request processed
Data is being Processed
348 1965322696638524735 8
350
Added to LLC Read Queue
Set 455 Way 8 Index 0
Adding to DRAM
Adding to RQ 1 Index 0
Updating DRAM Schedule Cycle
DRAM Read Scheduled
DRAM request processed
Data is being Processed
349 4016584710633389110 8
351
Added to LLC Read Queue
Set 34 Way 8 Index 0
Adding to DRAM
Adding to RQ 1 Index 0
Updating DRAM Schedule Cycle
DRAM Read Scheduled
DRAM request processed
Data is being Processed
350 1432551892868728155 8
352
Added to LLC Read Queue
Set 1417 Way 8 Index 0
Adding to DRAM
Adding to RQ 1 Index 0
Updating DRAM Schedule Cycle
DRAM Read Scheduled
DRAM request processed
Data is being Processed
351 2798234192401960955 8
353
Added to LLC Read Queue
Set 1109 Way 0 Index 0
Adding to DRAM
Adding to RQ 1 Index 0
Updating DRAM Schedule Cycle
DRAM Read Scheduled
DRAM request processed
Data is being Processed
352 4402798659774003029 0
354
Added to LLC Read Queue
Set 1347 Way 0 Index 0
Adding to DRAM
Adding to RQ 1 Index 0
Updating DRAM Schedule Cycle
DRAM Read Scheduled
DRAM request processed
Data is being Processed
353 1050604239113237880 0
355
Added to LLC Read Queue
Set 89 Way 8 Index 0
Adding to DRAM
Adding to RQ 1 Index 0
Updating DRAM Schedule Cycle
DRAM Read Scheduled
DRAM request processed
Data is being Processed
354 701043120618036482 8
356
Added to LLC Read Queue
Set 1992 Way 0 Index 0
Adding to DRAM
Adding to RQ 1 Index 0
Updating DRAM Schedule Cycle
DRAM Read Scheduled
DRAM request processed
Data is being Processed
355 2985437656624659897 0
357
Added to LLC Read Queue
Set 252 Way 0 Index 0
Adding to DRAM
Adding to RQ 1 Index 0
Updating DRAM Schedule Cycle
DRAM Read Scheduled
DRAM request processed
Data is being Processed
356 3393922747649219670 0
358
Added to LLC Read Queue
Set 1018 Way 0 Index 0
Adding to DRAM
Adding to RQ 1 Index 0
Updating DRAM Schedule Cycle
DRAM Read Scheduled
DRAM request processed
Data is being Processed
357 1768650889220369621 0
359
Added to LLC Read Queue
Set 488 Way 0 Index 0
Adding to DRAM
Adding to RQ 1 Index 0
Updating DRAM Schedule Cycle
DRAM Read Scheduled
DRAM request processed
Data is being Processed
358 2574156968531102717 0
360
Added to LLC Read Queue
Set 549 Way 0 Index 0
Adding to DRAM
Adding to RQ 1 Index 0
Updating DRAM Schedule Cycle
DRAM Read Scheduled
DRAM request processed
Data is being Processed
359 2143873738013539186 0
361
Added to LLC Read Queue
Set 1351 Way 9 Index 0
Adding to DRAM
Adding to RQ 1 Index 0
Updating DRAM Schedule Cycle
DRAM Read Scheduled
DRAM request processed
Data is being Processed
360 2941897984847539446 9
362
Added to LLC Read Queue
Set 296 Way 8 Index 0
Adding to DRAM
Adding to RQ 1 Index 0
Updating DRAM Schedule Cycle
DRAM Read Scheduled
DRAM request processed
Data is being Processed
361 2272301273759725474 8
363
Added to LLC Read Queue
Set 1278 Way 0 Index 0
Adding to DRAM
Adding to RQ 1 Index 0
Updating DRAM Schedule Cycle
DRAM Read Scheduled
DRAM request processed
Data is being Processed
362 2532975680810736282 0
364
Added to LLC Read Queue
Set 1550 Way 8 Index 0
Adding to DRAM
Adding to RQ 1 Index 0
Updating DRAM Schedule Cycle
DRAM Read Scheduled
DRAM request processed
Data is being Processed
363 533963894410377191 8
365
Added to LLC Read Queue
Set 454 Way 0 Index 0
Adding to DRAM
Adding to RQ 1 Index 0
Updating DRAM Schedule Cycle
DRAM Read Scheduled
DRAM request processed
Data is being Processed
364 880770689245506955 0
366
Added to LLC Read Queue
Set 1881 Way 8 Index 0
Adding to DRAM
Adding to RQ 1 Index 0
Updating DRAM Schedule Cycle
DRAM Read Scheduled
DRAM request processed
Data is being Processed
365 1646818587655706476 8
367
Added to LLC Read Queue
Set 1469 Way 0 Index 0
Adding to DRAM
Adding to RQ 1 Index 0
Updating DRAM Schedule Cycle
DRAM Read Scheduled
DRAM request processed
Data is being Processed
366 3595308363042368055 0
368
Added to LLC Read Queue
Set 833 Way 8 Index 0
Adding to DRAM
Adding to RQ 1 Index 0
Updating DRAM Schedule Cycle
DRAM Read Scheduled
DRAM request processed
Data is being Processed
367 767908026705659295 8
369
Added to LLC Read Queue
Set 482 Way 8 Index 0
Adding to DRAM
Adding to RQ 1 Index 0
Updating DRAM Schedule Cycle
DRAM Read Scheduled
DRAM request processed
Data is being Processed
368 2180117252170436679 8
370
Added to LLC Read Queue
Set 25 Way 0 Index 0
Adding to DRAM
Adding to RQ 1 Index 0
Updating DRAM Schedule Cycle
DRAM Read Scheduled
DRAM request processed
Data is being Processed
369 1110939081991433726 0
371
Added to LLC Read Queue
Set 883 Way 1 Index 0
Adding to DRAM
Adding to RQ 1 Index 0
Updating DRAM Schedule Cycle
DRAM Read Scheduled
DRAM request processed
Data is being Processed
370 4543974514967373763 1
372
Added to LLC Read Queue
Set 978 Way 8 Index 0
Adding to DRAM
Adding to RQ 1 Index 0
Updating DRAM Schedule Cycle
DRAM Read Scheduled
DRAM request processed
Data is being Processed
371 3155274915657085441 8
373
Added to LLC Read Queue
Set 128 Way 1 Index 0
Adding to DRAM
Adding to RQ 1 Index 0
Updating DRAM Schedule Cycle
DRAM Read Scheduled
DRAM request processed
Data is being Processed
372 4000259470677107660 1
374
Added to LLC Read Queue
Set 168 Way 8 Index 0
Adding to DRAM
Adding to RQ 1 Index 0
Updating DRAM Schedule Cycle
DRAM Read Scheduled
DRAM request processed
Data is being Processed
373 3923814950465946897 8
375
Added to LLC Read Queue
Set 1131 Way 9 Index 0
Adding to DRAM
Adding to RQ 1 Index 0
Updating DRAM Schedule Cycle
DRAM Read Scheduled
DRAM request processed
Data is being Processed
374 2191135835887818471 9
376
Added to LLC Read Queue
Set 1016 Way 8 Index 0
Adding to DRAM
Adding to RQ 1 Index 0
Updating DRAM Schedule Cycle
DRAM Read Scheduled
DRAM request processed
Data is being Processed
375 330827289153887676 8
377
Added to LLC Read Queue
Set 613 Way 0 Index 0
Adding to DRAM
[...]
Updating DRAM Schedule Cycle
DRAM Read Scheduled
DRAM request processed
Data is being Processed
16321 723162288111709467 4
16323
Added to LLC Read Queue
Set 1628 Way 15 Index 0
Adding to DRAM
Adding to RQ 1 Index 0
Updating DRAM Schedule Cycle
DRAM Read Scheduled
DRAM request processed
Data is being Processed
16322 3957281124462393214 15
16324
Added to LLC Read Queue
Set 692 Way 13 Index 0
Adding to DRAM
Adding to RQ 1 Index 0
Updating DRAM Schedule Cycle
DRAM Read Scheduled
DRAM request processed
Data is being Processed
16323 714998255857949416 13
16325
Added to LLC Read Queue
Set 1431 Way 8 Index 0
Adding to DRAM
Adding to RQ 1 Index 0
Updating DRAM Schedule Cycle
DRAM Read Scheduled
DRAM request processed
Data is being Processed
16324 3125018746282457508 8
16326
Added to LLC Read Queue
Set 933 Way 3 Index 0
Adding to DRAM
Adding to RQ 1 Index 0
Updating DRAM Schedule Cycle
DRAM Read Scheduled
DRAM request processed
Data is being Processed
16325 3679756799651623933 3
16327
Added to LLC Read Queue
Set 677 Way 9 Index 0
Adding to DRAM
Adding to RQ 1 Index 0
Updating DRAM Schedule Cycle
DRAM Read Scheduled
DRAM request processed
Data is being Processed
16326 2440254047407692650 9
16328
Added to LLC Read Queue
Set 1138 Way 12 Index 0
Adding to DRAM
Adding to RQ 1 Index 0
Updating DRAM Schedule Cycle
DRAM Read Scheduled
DRAM request processed
Data is being Processed
16327 1023049401135552574 12
16329
Added to LLC Read Queue
Set 129 Way 14 Index 0
Adding to DRAM
Adding to RQ 1 Index 0
Updating DRAM Schedule Cycle
DRAM Read Scheduled
DRAM request processed
Data is being Processed
16328 3841641854808790813 14
16330
Added to LLC Read Queue
Set 716 Way 9 Index 0
Adding to DRAM
Adding to RQ 1 Index 0
Updating DRAM Schedule Cycle
DRAM Read Scheduled
DRAM request processed
Data is being Processed
16329 3402629903784629984 9
16331
Added to LLC Read Queue
Set 1534 Way 3 Index 0
Adding to DRAM
Adding to RQ 1 Index 0
Updating DRAM Schedule Cycle
DRAM Read Scheduled
DRAM request processed
Data is being Processed
16330 4491232080949744585 3
16332
Added to LLC Read Queue
Set 1640 Way 3 Index 0
Adding to DRAM
Adding to RQ 1 Index 0
Updating DRAM Schedule Cycle
DRAM Read Scheduled
DRAM request processed
Data is being Processed
16331 3404248068907466615 3
16333
Added to LLC Read Queue
Set 968 Way 5 Index 0
Adding to DRAM
Adding to RQ 1 Index 0
Updating DRAM Schedule Cycle
DRAM Read Scheduled
DRAM request processed
Data is being Processed
16332 3357147284611329735 5
16334
Added to LLC Read Queue
Set 1564 Way 3 Index 0
Adding to DRAM
Adding to RQ 1 Index 0
Updating DRAM Schedule Cycle
DRAM Read Scheduled
DRAM request processed
Data is being Processed
16333 1554229446095643556 3
16335
Added to LLC Read Queue
Set 1214 Way 11 Index 0
Adding to DRAM
Adding to RQ 1 Index 0
Updating DRAM Schedule Cycle
DRAM Read Scheduled
DRAM request processed
Data is being Processed
16334 2104681490096040009 11
16336
Added to LLC Read Queue
Set 1519 Way 1 Index 0
Adding to DRAM
Adding to RQ 1 Index 0
Updating DRAM Schedule Cycle
DRAM Read Scheduled
DRAM request processed
Data is being Processed
16335 4135351331372111662 1
16337
Added to LLC Read Queue
Set 1584 Way 2 Index 0
Adding to DRAM
Adding to RQ 1 Index 0
Updating DRAM Schedule Cycle
DRAM Read Scheduled
DRAM request processed
Data is being Processed
16336 3957321700790792488 2
16338
Added to LLC Read Queue
Set 1102 Way 1 Index 0
Adding to DRAM
Adding to RQ 1 Index 0
Updating DRAM Schedule Cycle
DRAM Read Scheduled
DRAM request processed
Data is being Processed
16337 4064355921381733532 1
16339
Added to LLC Read Queue
Set 891 Way 10 Index 0
Adding to DRAM
Adding to RQ 1 Index 0
Updating DRAM Schedule Cycle
DRAM Read Scheduled
DRAM request processed
Data is being Processed
16338 663367366197016969 10
16340
Added to LLC Read Queue
Set 1643 Way 1 Index 0
Adding to DRAM
Adding to RQ 1 Index 0
Updating DRAM Schedule Cycle
DRAM Read Scheduled
DRAM request processed
Data is being Processed
16339 1175603706609416139 1
16341
Added to LLC Read Queue
Set 1981 Way 12 Index 0
Adding to DRAM
Adding to RQ 1 Index 0
Updating DRAM Schedule Cycle
DRAM Read Scheduled
DRAM request processed
Data is being Processed
16340 2271558692668534647 12
16342
Added to LLC Read Queue
Set 684 Way 11 Index 0
Adding to DRAM
Adding to RQ 1 Index 0
Updating DRAM Schedule Cycle
DRAM Read Scheduled
DRAM request processed
Data is being Processed
16341 3080298065725423026 11
16343
Added to LLC Read Queue
Set 1 Way 2 Index 0
Adding to DRAM
Adding to RQ 1 Index 0
Updating DRAM Schedule Cycle
DRAM Read Scheduled
DRAM request processed
Data is being Processed
16342 645882718412098810 2
16344
Added to LLC Read Queue
Set 860 Way 12 Index 0
Adding to DRAM
Adding to RQ 1 Index 0
Updating DRAM Schedule Cycle
DRAM Read Scheduled
DRAM request processed
Data is being Processed
16343 449716617577264404 12
16345
Added to LLC Read Queue
Set 761 Way 11 Index 0
Adding to DRAM
Adding to RQ 1 Index 0
Updating DRAM Schedule Cycle
DRAM Read Scheduled
DRAM request processed
Data is being Processed
16344 2376624314716672764 11
16346
Added to LLC Read Queue
Set 1296 Way 13 Index 0
Adding to DRAM
Adding to RQ 1 Index 0
Updating DRAM Schedule Cycle
DRAM Read Scheduled
DRAM request processed
Data is being Processed
16345 2546028092966375342 13
16347
Added to LLC Read Queue
Set 1625 Way 13 Index 0
Adding to DRAM
Adding to RQ 1 Index 0
Updating DRAM Schedule Cycle
DRAM Read Scheduled
DRAM request processed
Data is being Processed
16346 1943177512318079501 13
16348
Added to LLC Read Queue
Set 744 Way 12 Index 0
Adding to DRAM
Adding to RQ 1 Index 0
Updating DRAM Schedule Cycle
DRAM Read Scheduled
DRAM request processed
Data is being Processed
16347 3705742871803960926 12
16349
Added to LLC Read Queue
Set 1801 Way 9 Index 0
Adding to DRAM
Adding to RQ 1 Index 0
Updating DRAM Schedule Cycle
DRAM Read Scheduled
DRAM request processed
Data is being Processed
16348 3813280231092087692 9
16350
Added to LLC Read Queue
Set 1603 Way 5 Index 0
Adding to DRAM
Adding to RQ 1 Index 0
Updating DRAM Schedule Cycle
DRAM Read Scheduled
DRAM request processed
Data is being Processed
16349 2018259305751314880 5
16351
Added to LLC Read Queue
Set 1407 Way 4 Index 0
Adding to DRAM
Adding to RQ 1 Index 0
Updating DRAM Schedule Cycle
DRAM Read Scheduled
DRAM request processed
Data is being Processed
16350 2311019937139193758 4
16352
Added to LLC Read Queue
Set 652 Way 14 Index 0
Adding to DRAM
Adding to RQ 1 Index 0
Updating DRAM Schedule Cycle
DRAM Read Scheduled
DRAM request processed
Data is being Processed
16351 2758962038436996120 14
16353
Added to LLC Read Queue
Set 1962 Way 12 Index 0
Adding to DRAM
Adding to RQ 1 Index 0
Updating DRAM Schedule Cycle
DRAM Read Scheduled
DRAM request processed
Data is being Processed
16352 1236518067405432792 12
16354
Added to LLC Read Queue
Set 441 Way 14 Index 0
Adding to DRAM
Adding to RQ 1 Index 0
Updating DRAM Schedule Cycle
DRAM Read Scheduled
DRAM request processed
Data is being Processed
16353 2493019515751574908 14
16355
Added to LLC Read Queue
Set 1672 Way 6 Index 0
Adding to DRAM
Adding to RQ 1 Index 0
Updating DRAM Schedule Cycle
DRAM Read Scheduled
DRAM request processed
Data is being Processed
16354 343155236242220394 6
16356
Added to LLC Read Queue
Set 1842 Way 4 Index 0
Adding to DRAM
Adding to RQ 1 Index 0
Updating DRAM Schedule Cycle
DRAM Read Scheduled
DRAM request processed
Data is being Processed
16355 1849051385730234003 4
16357
Added to LLC Read Queue
Set 592 Way 7 Index 0
Adding to DRAM
Adding to RQ 1 Index 0
Updating DRAM Schedule Cycle
DRAM Read Scheduled
DRAM request processed
Data is being Processed
16356 293617818047923864 7
16358
Added to LLC Read Queue
Set 1119 Way 10 Index 0
Adding to DRAM
Adding to RQ 1 Index 0
Updating DRAM Schedule Cycle
DRAM Read Scheduled
DRAM request processed
Data is being Processed
16357 641474837247221748 10
16359
Added to LLC Read Queue
Set 380 Way 10 Index 0
Adding to DRAM
Adding to RQ 1 Index 0
Updating DRAM Schedule Cycle
DRAM Read Scheduled
DRAM request processed
Data is being Processed
16358 3812248016405445930 10
16360
Added to LLC Read Queue
Set 1088 Way 10 Index 0
Adding to DRAM
Adding to RQ 1 Index 0
Updating DRAM Schedule Cycle
DRAM Read Scheduled
DRAM request processed
Data is being Processed
16359 1865935226889335402 10
16361
Added to LLC Read Queue
Set 1406 Way 14 Index 0
Adding to DRAM
Adding to RQ 1 Index 0
Updating DRAM Schedule Cycle
DRAM Read Scheduled
DRAM request processed
Data is being Processed
16360 2996726281689174548 14
16362
Added to LLC Read Queue
Set 1442 Way 11 Index 0
Adding to DRAM
Adding to RQ 1 Index 0
Updating DRAM Schedule Cycle
DRAM Read Scheduled
DRAM request processed
Data is being Processed
16361 761958245032288019 11
16363
Added to LLC Read Queue
Set 1534 Way 10 Index 0
Adding to DRAM
Adding to RQ 1 Index 0
Updating DRAM Schedule Cycle
DRAM Read Scheduled
DRAM request processed
Data is being Processed
16362 1560600336244365678 10
16364
Added to LLC Read Queue
Set 219 Way 11 Index 0
Adding to DRAM
Adding to RQ 1 Index 0
Updating DRAM Schedule Cycle
DRAM Read Scheduled
DRAM request processed
Data is being Processed
16363 889768407984666332 11
16365
Added to LLC Read Queue
Set 31 Way 15 Index 0
Adding to DRAM
Adding to RQ 1 Index 0
Updating DRAM Schedule Cycle
DRAM Read Scheduled
DRAM request processed
Data is being Processed
16364 3741481587910267371 15
16366
Added to LLC Read Queue
Set 1517 Way 12 Index 0
Adding to DRAM
Adding to RQ 1 Index 0
Updating DRAM Schedule Cycle
DRAM Read Scheduled
DRAM request processed
Data is being Processed
16365 859414586530560724 12
16367
Added to LLC Read Queue
Set 1150 Way 10 Index 0
Adding to DRAM
Adding to RQ 1 Index 0
Updating DRAM Schedule Cycle
DRAM Read Scheduled
DRAM request processed
Data is being Processed
16366 1311114620168333068 10
16368
Added to LLC Read Queue
Set 1589 Way 10 Index 0
Adding to DRAM
Adding to RQ 1 Index 0
Updating DRAM Schedule Cycle
DRAM Read Scheduled
DRAM request processed
Data is being Processed
16367 3863651872561333957 10
16369
Added to LLC Read Queue
Set 757 Way 14 Index 0
Adding to DRAM
Adding to RQ 1 Index 0
Updating DRAM Schedule Cycle
DRAM Read Scheduled
DRAM request processed
Data is being Processed
16368 1260966954689724940 14
16370
Added to LLC Read Queue
Set 687 Way 7 Index 0
Adding to DRAM
Adding to RQ 1 Index 0
Updating DRAM Schedule Cycle
DRAM Read Scheduled
DRAM request processed
Data is being Processed
16369 1453904373823180151 7
16371
Added to LLC Read Queue
Set 720 Way 13 Index 0
Adding to DRAM
Adding to RQ 1 Index 0
Updating DRAM Schedule Cycle
DRAM Read Scheduled
DRAM request processed
Data is being Processed
16370 1729329831041546193 13
16372
Added to LLC Read Queue
Set 1657 Way 1 Index 0
Adding to DRAM
Adding to RQ 1 Index 0
Updating DRAM Schedule Cycle
DRAM Read Scheduled
DRAM request processed
Data is being Processed
16371 3194370257602581762 1
16373
Added to LLC Read Queue
Set 1574 Way 5 Index 0
Adding to DRAM
Adding to RQ 1 Index 0
Updating DRAM Schedule Cycle
DRAM Read Scheduled
DRAM request processed
Data is being Processed
16372 3591284673457546174 5
16374
Added to LLC Read Queue
Set 1092 Way 11 Index 0
Adding to DRAM
Adding to RQ 1 Index 0
Updating DRAM Schedule Cycle
DRAM Read Scheduled
DRAM request processed
Data is being Processed
16373 412900381478284329 11
16375
Added to LLC Read Queue
Set 1640 Way 13 Index 0
Adding to DRAM
Adding to RQ 1 Index 0
Updating DRAM Schedule Cycle
DRAM Read Scheduled
DRAM request processed
Data is being Processed
16374 3166597297421202628 13
16376
Added to LLC Read Queue
Set 1121 Way 11 Index 0
Adding to DRAM
Adding to RQ 1 Index 0
Updating DRAM Schedule Cycle
DRAM Read Scheduled
DRAM request processed
Data is being Processed
16375 4348916491603113979 11
16377
Added to LLC Read Queue
Set 1325 Way 5 Index 0
Adding to DRAM
Adding to RQ 1 Index 0
Updating DRAM Schedule Cycle
DRAM Read Scheduled
DRAM request processed
Data is being Processed
16376 1750288244655317752 5
16378
Added to LLC Read Queue
Set 1288 Way 11 Index 0
Adding to DRAM
Adding to RQ 1 Index 0
Updating DRAM Schedule Cycle
DRAM Read Scheduled
DRAM request processed
Data is being Processed
16377 3037443444730054753 11
16379
Added to LLC Read Queue
Set 524 Way 4 Index 0
Adding to DRAM
Adding to RQ 1 Index 0
Updating DRAM Schedule Cycle
DRAM Read Scheduled
DRAM request processed
Data is being Processed
16378 4509573963863272679 4
16380
Added to LLC Read Queue
Set 1263 Way 13 Index 0
Adding to DRAM
Adding to RQ 1 Index 0
Updating DRAM Schedule Cycle
DRAM Read Scheduled
DRAM request processed
Data is being Processed
16379 3703158811962779844 13
16381
Added to LLC Read Queue
Set 461 Way 9 Index 0
Adding to DRAM
Adding to RQ 1 Index 0
Updating DRAM Schedule Cycle
DRAM Read Scheduled
DRAM request processed
Data is being Processed
16380 630687582680932700 9
16382
Added to LLC Read Queue
Set 1781 Way 9 Index 0
Adding to DRAM
Adding to RQ 1 Index 0
Updating DRAM Schedule Cycle
DRAM Read Scheduled
DRAM request processed
Data is being Processed
16381 3797023228557556913 9
16383
Added to LLC Read Queue
Set 639 Way 2 Index 0
Adding to DRAM
Adding to RQ 1 Index 0
Updating DRAM Schedule Cycle
DRAM Read Scheduled
DRAM request processed
Data is being Processed
16382 1638076208479629647 2

Number of Cache Misses: 106

CPU 0 Branch Prediction Accuracy: -nan% MPKI: 0 Average ROB Occupancy at Mispredict: -nan

ChampSim completed all CPUs

Region of Interest Statistics

CPU 0 cumulative IPC: -nan instructions: 0 cycles: 0
ITLB TOTAL     ACCESS:     0  HIT:     0  MISS:     0  HIT %:     0  MISS %:     0  AVERAGE MISS PENALTY: 0
ITLB LOAD      ACCESS:     0  HIT:     0  MISS:     0  HIT %:     0  MISS %:     0  AVERAGE MISS PENALTY: 0
ITLB RFO       ACCESS:     0  HIT:     0  MISS:     0  HIT %:     0  MISS %:     0  AVERAGE MISS PENALTY: 0
ITLB PREFETCH  ACCESS:     0  HIT:     0  MISS:     0  HIT %:     0  MISS %:     0  AVERAGE MISS PENALTY: 0
ITLB WRITEBACK ACCESS:     0  HIT:     0  MISS:     0  HIT %:     0  MISS %:     0  AVERAGE MISS PENALTY: 0
ITLB PREFETCH  REQUESTED:     0  ISSUED:     0  USEFUL:     0  USELESS:     0
 USEFUL LOAD PREFETCHES:          0 PREFETCH ISSUED TO LOWER LEVEL:          0  ACCURACY: -nan
 TIMELY PREFETCHES:          0 LATE PREFETCHES: 0 DROPPED PREFETCHES: 0
ITLB AVERAGE MISS LATENCY: -nan cycles

DTLB TOTAL     ACCESS:     0  HIT:     0  MISS:     0  HIT %:     0  MISS %:     0  AVERAGE MISS PENALTY: 0
DTLB LOAD      ACCESS:     0  HIT:     0  MISS:     0  HIT %:     0  MISS %:     0  AVERAGE MISS PENALTY: 0
DTLB RFO       ACCESS:     0  HIT:     0  MISS:     0  HIT %:     0  MISS %:     0  AVERAGE MISS PENALTY: 0
DTLB PREFETCH  ACCESS:     0  HIT:     0  MISS:     0  HIT %:     0  MISS %:     0  AVERAGE MISS PENALTY: 0
DTLB WRITEBACK ACCESS:     0  HIT:     0  MISS:     0  HIT %:     0  MISS %:     0  AVERAGE MISS PENALTY: 0
DTLB PREFETCH  REQUESTED:     0  ISSUED:     0  USEFUL:     0  USELESS:     0
 USEFUL LOAD PREFETCHES:          0 PREFETCH ISSUED TO LOWER LEVEL:          0  ACCURACY: -nan
 TIMELY PREFETCHES:          0 LATE PREFETCHES: 0 DROPPED PREFETCHES: 0
DTLB AVERAGE MISS LATENCY: -nan cycles

STLB TOTAL     ACCESS:     0  HIT:     0  MISS:     0  HIT %:     0  MISS %:     0  AVERAGE MISS PENALTY: 0
STLB LOAD      ACCESS:     0  HIT:     0  MISS:     0  HIT %:     0  MISS %:     0  AVERAGE MISS PENALTY: 0
STLB RFO       ACCESS:     0  HIT:     0  MISS:     0  HIT %:     0  MISS %:     0  AVERAGE MISS PENALTY: 0
STLB PREFETCH  ACCESS:     0  HIT:     0  MISS:     0  HIT %:     0  MISS %:     0  AVERAGE MISS PENALTY: 0
STLB WRITEBACK ACCESS:     0  HIT:     0  MISS:     0  HIT %:     0  MISS %:     0  AVERAGE MISS PENALTY: 0
STLB PREFETCH  REQUESTED:     0  ISSUED:     0  USEFUL:     0  USELESS:     0
 USEFUL LOAD PREFETCHES:          0 PREFETCH ISSUED TO LOWER LEVEL:          0  ACCURACY: -nan
 TIMELY PREFETCHES:          0 LATE PREFETCHES: 0 DROPPED PREFETCHES: 0
STLB AVERAGE MISS LATENCY: -nan cycles

L1D TOTAL     ACCESS:     0  HIT:     0  MISS:     0  HIT %:     0  MISS %:     0  AVERAGE MISS PENALTY: 0
L1D LOAD      ACCESS:     0  HIT:     0  MISS:     0  HIT %:     0  MISS %:     0  AVERAGE MISS PENALTY: 0
L1D RFO       ACCESS:     0  HIT:     0  MISS:     0  HIT %:     0  MISS %:     0  AVERAGE MISS PENALTY: 0
L1D PREFETCH  ACCESS:     0  HIT:     0  MISS:     0  HIT %:     0  MISS %:     0  AVERAGE MISS PENALTY: 0
L1D WRITEBACK ACCESS:     0  HIT:     0  MISS:     0  HIT %:     0  MISS %:     0  AVERAGE MISS PENALTY: 0
L1D PREFETCH  REQUESTED:     0  ISSUED:     0  USEFUL:     0  USELESS:     0
 USEFUL LOAD PREFETCHES:          0 PREFETCH ISSUED TO LOWER LEVEL:          0  ACCURACY: -nan
 TIMELY PREFETCHES:          0 LATE PREFETCHES: 0 DROPPED PREFETCHES: 0
L1D AVERAGE MISS LATENCY: -nan cycles

L1I TOTAL     ACCESS:     0  HIT:     0  MISS:     0  HIT %:     0  MISS %:     0  AVERAGE MISS PENALTY: 0
L1I LOAD      ACCESS:     0  HIT:     0  MISS:     0  HIT %:     0  MISS %:     0  AVERAGE MISS PENALTY: 0
L1I RFO       ACCESS:     0  HIT:     0  MISS:     0  HIT %:     0  MISS %:     0  AVERAGE MISS PENALTY: 0
L1I PREFETCH  ACCESS:     0  HIT:     0  MISS:     0  HIT %:     0  MISS %:     0  AVERAGE MISS PENALTY: 0
L1I WRITEBACK ACCESS:     0  HIT:     0  MISS:     0  HIT %:     0  MISS %:     0  AVERAGE MISS PENALTY: 0
L1I PREFETCH  REQUESTED:     0  ISSUED:     0  USEFUL:     0  USELESS:     0
 USEFUL LOAD PREFETCHES:          0 PREFETCH ISSUED TO LOWER LEVEL:          0  ACCURACY: -nan
 TIMELY PREFETCHES:          0 LATE PREFETCHES: 0 DROPPED PREFETCHES: 0
L1I AVERAGE MISS LATENCY: -nan cycles

L2C TOTAL     ACCESS:     0  HIT:     0  MISS:     0  HIT %:     0  MISS %:     0  AVERAGE MISS PENALTY: 0
L2C LOAD      ACCESS:     0  HIT:     0  MISS:     0  HIT %:     0  MISS %:     0  AVERAGE MISS PENALTY: 0
L2C RFO       ACCESS:     0  HIT:     0  MISS:     0  HIT %:     0  MISS %:     0  AVERAGE MISS PENALTY: 0
L2C PREFETCH  ACCESS:     0  HIT:     0  MISS:     0  HIT %:     0  MISS %:     0  AVERAGE MISS PENALTY: 0
L2C WRITEBACK ACCESS:     0  HIT:     0  MISS:     0  HIT %:     0  MISS %:     0  AVERAGE MISS PENALTY: 0
L2C PREFETCH  REQUESTED:     0  ISSUED:     0  USEFUL:     0  USELESS:     0
 USEFUL LOAD PREFETCHES:          0 PREFETCH ISSUED TO LOWER LEVEL:          0  ACCURACY: -nan
 TIMELY PREFETCHES:          0 LATE PREFETCHES: 0 DROPPED PREFETCHES: 0
L2C AVERAGE MISS LATENCY: -nan cycles

LLC0 TOTAL     ACCESS:     0  HIT:     0  MISS:     0  HIT %:     0  MISS %:     0  AVERAGE MISS PENALTY: 0
LLC0 LOAD      ACCESS:     0  HIT:     0  MISS:     0  HIT %:     0  MISS %:     0  AVERAGE MISS PENALTY: 0
LLC0 RFO       ACCESS:     0  HIT:     0  MISS:     0  HIT %:     0  MISS %:     0  AVERAGE MISS PENALTY: 0
LLC0 PREFETCH  ACCESS:     0  HIT:     0  MISS:     0  HIT %:     0  MISS %:     0  AVERAGE MISS PENALTY: 0
LLC0 WRITEBACK ACCESS:     0  HIT:     0  MISS:     0  HIT %:     0  MISS %:     0  AVERAGE MISS PENALTY: 0
LLC0 PREFETCH  REQUESTED:     0  ISSUED:     0  USEFUL:     0  USELESS:     0
 USEFUL LOAD PREFETCHES:          0 PREFETCH ISSUED TO LOWER LEVEL:          0  ACCURACY: -nan
 TIMELY PREFETCHES:          0 LATE PREFETCHES: 0 DROPPED PREFETCHES: 0
LLC0 AVERAGE MISS LATENCY: -nan cycles

ROI Average ROB Stall Cycles:	-nan
ROI Total ROB Stalls Cycles:	0
ROI TOTAL ROB counter      :	0
ROI Average Load ROB Stall Cycles:	-nan
ROI Total Load ROB Stalls Cycle  :	0
ROI Total Load ROB stalls Counter:	0
Major fault: 0 Minor fault: 0
Interconnect Stats 
LINK 0 BW : -nan
DRAM Statistics
 CHANNEL 0
 RQ ROW_BUFFER_HIT:     0  ROW_BUFFER_MISS: 16384
 DBUS_CONGESTED:     0
 WQ ROW_BUFFER_HIT:     0  ROW_BUFFER_MISS:     0  FULL:     0

 AVG_CONGESTED_CYCLE: -
DRAM PAGES: 1048576
Allocated PAGES: 0

CEASER-S Statistics
SLICE NO: 0
Total sets remapped: 0
Total LLC Stalled: 0
Total Stall Cycles: 0

L2C destructor called
L1D destructor called
L1I destructor called
STLB destructor called
DTLB destructor called
ITLB destructor called
